
---------- Begin Simulation Statistics ----------
final_tick                                  548749500                       # Number of ticks from beginning of simulation (restored from checkpoints and never reset)
host_inst_rate                                 628742                       # Simulator instruction rate (inst/s)
host_mem_usage                                 669404                       # Number of bytes of host memory used
host_op_rate                                  1144473                       # Simulator op (including micro ops) rate (op/s)
host_seconds                                     0.27                       # Real time elapsed on the host
host_tick_rate                             2056067042                       # Simulator tick rate (ticks/s)
sim_freq                                 1000000000000                       # Frequency of simulated ticks
sim_insts                                      167737                       # Number of instructions simulated
sim_ops                                        305424                       # Number of ops (including micro ops) simulated
sim_seconds                                  0.000549                       # Number of seconds simulated
sim_ticks                                   548749500                       # Number of ticks simulated
system.cpu.Branches                             37344                       # Number of branches fetched
system.cpu.committedInsts                      167737                       # Number of instructions committed
system.cpu.committedOps                        305424                       # Number of ops (including micro ops) committed
system.cpu.idle_fraction                     0.000000                       # Percentage of idle cycles
system.cpu.not_idle_fraction                 1.000000                       # Percentage of non-idle cycles
system.cpu.numCycles                          1097499                       # number of cpu cycles simulated
system.cpu.numWorkItemsCompleted                    0                       # number of work items this cpu completed
system.cpu.numWorkItemsStarted                      0                       # number of work items this cpu started
system.cpu.num_busy_cycles               1097498.998000                       # Number of busy cycles
system.cpu.num_cc_register_reads               196412                       # number of times the CC registers were read
system.cpu.num_cc_register_writes              126826                       # number of times the CC registers were written
system.cpu.num_conditional_control_insts        31523                       # number of instructions that are conditional controls
system.cpu.num_fp_alu_accesses                   5482                       # Number of float alu accesses
system.cpu.num_fp_insts                          5482                       # number of float instructions
system.cpu.num_fp_register_reads                 7589                       # number of times the floating registers were read
system.cpu.num_fp_register_writes                3866                       # number of times the floating registers were written
system.cpu.num_func_calls                        1534                       # number of times a function call or return occured
system.cpu.num_idle_cycles                   0.002000                       # Number of idle cycles
system.cpu.num_int_alu_accesses                300819                       # Number of integer alu accesses
system.cpu.num_int_insts                       300819                       # number of integer instructions
system.cpu.num_int_register_reads              579664                       # number of times the integer registers were read
system.cpu.num_int_register_writes             253380                       # number of times the integer registers were written
system.cpu.num_load_insts                       38894                       # Number of load instructions
system.cpu.num_mem_refs                         51259                       # number of memory refs
system.cpu.num_store_insts                      12365                       # Number of store instructions
system.cpu.num_vec_alu_accesses                     0                       # Number of vector alu accesses
system.cpu.num_vec_insts                            0                       # number of vector instructions
system.cpu.num_vec_register_reads                   0                       # number of times the vector registers were read
system.cpu.num_vec_register_writes                  0                       # number of times the vector registers were written
system.cpu.op_class::No_OpClass                  1908      0.62%      0.62% # Class of executed instruction
system.cpu.op_class::IntAlu                    247877     81.13%     81.76% # Class of executed instruction
system.cpu.op_class::IntMult                       27      0.01%     81.77% # Class of executed instruction
system.cpu.op_class::IntDiv                      1322      0.43%     82.20% # Class of executed instruction
system.cpu.op_class::FloatAdd                     375      0.12%     82.32% # Class of executed instruction
system.cpu.op_class::FloatCmp                       0      0.00%     82.32% # Class of executed instruction
system.cpu.op_class::FloatCvt                      32      0.01%     82.33% # Class of executed instruction
system.cpu.op_class::FloatMult                      0      0.00%     82.33% # Class of executed instruction
system.cpu.op_class::FloatMultAcc                   0      0.00%     82.33% # Class of executed instruction
system.cpu.op_class::FloatDiv                       0      0.00%     82.33% # Class of executed instruction
system.cpu.op_class::FloatMisc                      0      0.00%     82.33% # Class of executed instruction
system.cpu.op_class::FloatSqrt                      0      0.00%     82.33% # Class of executed instruction
system.cpu.op_class::SimdAdd                      318      0.10%     82.44% # Class of executed instruction
system.cpu.op_class::SimdAddAcc                     0      0.00%     82.44% # Class of executed instruction
system.cpu.op_class::SimdAlu                      689      0.23%     82.66% # Class of executed instruction
system.cpu.op_class::SimdCmp                        6      0.00%     82.66% # Class of executed instruction
system.cpu.op_class::SimdCvt                      736      0.24%     82.90% # Class of executed instruction
system.cpu.op_class::SimdMisc                     885      0.29%     83.19% # Class of executed instruction
system.cpu.op_class::SimdMult                       0      0.00%     83.19% # Class of executed instruction
system.cpu.op_class::SimdMultAcc                    0      0.00%     83.19% # Class of executed instruction
system.cpu.op_class::SimdShift                     85      0.03%     83.22% # Class of executed instruction
system.cpu.op_class::SimdShiftAcc                   0      0.00%     83.22% # Class of executed instruction
system.cpu.op_class::SimdDiv                        0      0.00%     83.22% # Class of executed instruction
system.cpu.op_class::SimdSqrt                       0      0.00%     83.22% # Class of executed instruction
system.cpu.op_class::SimdFloatAdd                   0      0.00%     83.22% # Class of executed instruction
system.cpu.op_class::SimdFloatAlu                   0      0.00%     83.22% # Class of executed instruction
system.cpu.op_class::SimdFloatCmp                   0      0.00%     83.22% # Class of executed instruction
system.cpu.op_class::SimdFloatCvt                   0      0.00%     83.22% # Class of executed instruction
system.cpu.op_class::SimdFloatDiv                   0      0.00%     83.22% # Class of executed instruction
system.cpu.op_class::SimdFloatMisc                  0      0.00%     83.22% # Class of executed instruction
system.cpu.op_class::SimdFloatMult                  0      0.00%     83.22% # Class of executed instruction
system.cpu.op_class::SimdFloatMultAcc               0      0.00%     83.22% # Class of executed instruction
system.cpu.op_class::SimdFloatSqrt                  0      0.00%     83.22% # Class of executed instruction
system.cpu.op_class::SimdReduceAdd                  0      0.00%     83.22% # Class of executed instruction
system.cpu.op_class::SimdReduceAlu                  0      0.00%     83.22% # Class of executed instruction
system.cpu.op_class::SimdReduceCmp                  0      0.00%     83.22% # Class of executed instruction
system.cpu.op_class::SimdFloatReduceAdd             0      0.00%     83.22% # Class of executed instruction
system.cpu.op_class::SimdFloatReduceCmp             0      0.00%     83.22% # Class of executed instruction
system.cpu.op_class::SimdAes                        0      0.00%     83.22% # Class of executed instruction
system.cpu.op_class::SimdAesMix                     0      0.00%     83.22% # Class of executed instruction
system.cpu.op_class::SimdSha1Hash                   0      0.00%     83.22% # Class of executed instruction
system.cpu.op_class::SimdSha1Hash2                  0      0.00%     83.22% # Class of executed instruction
system.cpu.op_class::SimdSha256Hash                 0      0.00%     83.22% # Class of executed instruction
system.cpu.op_class::SimdSha256Hash2                0      0.00%     83.22% # Class of executed instruction
system.cpu.op_class::SimdShaSigma2                  0      0.00%     83.22% # Class of executed instruction
system.cpu.op_class::SimdShaSigma3                  0      0.00%     83.22% # Class of executed instruction
system.cpu.op_class::SimdPredAlu                    0      0.00%     83.22% # Class of executed instruction
system.cpu.op_class::MemRead                    38028     12.45%     95.67% # Class of executed instruction
system.cpu.op_class::MemWrite                   11185      3.66%     99.33% # Class of executed instruction
system.cpu.op_class::FloatMemRead                 866      0.28%     99.61% # Class of executed instruction
system.cpu.op_class::FloatMemWrite               1180      0.39%    100.00% # Class of executed instruction
system.cpu.op_class::IprAccess                      0      0.00%    100.00% # Class of executed instruction
system.cpu.op_class::InstPrefetch                   0      0.00%    100.00% # Class of executed instruction
system.cpu.op_class::total                     305519                       # Class of executed instruction
system.cpu.workload.numSyscalls                    39                       # Number of system calls
system.membus.snoop_filter.hit_multi_requests            0                       # Number of requests hitting in the snoop filter with multiple (>1) holders of the requested data.
system.membus.snoop_filter.hit_multi_snoops            0                       # Number of snoops hitting in the snoop filter with multiple (>1) holders of the requested data.
system.membus.snoop_filter.hit_single_requests            0                       # Number of requests hitting in the snoop filter with a single holder of the requested data.
system.membus.snoop_filter.hit_single_snoops            0                       # Number of snoops hitting in the snoop filter with a single holder of the requested data.
system.membus.snoop_filter.tot_requests          3588                       # Total number of requests made to the snoop filter.
system.membus.snoop_filter.tot_snoops               0                       # Total number of snoops made to the snoop filter.
system.tol2bus.snoop_filter.hit_multi_requests            0                       # Number of requests hitting in the snoop filter with multiple (>1) holders of the requested data.
system.tol2bus.snoop_filter.hit_multi_snoops            0                       # Number of snoops hitting in the snoop filter with multiple (>1) holders of the requested data.
system.tol2bus.snoop_filter.hit_single_requests           52                       # Number of requests hitting in the snoop filter with a single holder of the requested data.
system.tol2bus.snoop_filter.hit_single_snoops            0                       # Number of snoops hitting in the snoop filter with a single holder of the requested data.
system.tol2bus.snoop_filter.tot_requests         3643                       # Total number of requests made to the snoop filter.
system.tol2bus.snoop_filter.tot_snoops              0                       # Total number of snoops made to the snoop filter.
system.clk_domain.clock                          1000                       # Clock period in ticks
system.cpu.dcache.demand_hits::.cpu.data        48649                       # number of demand (read+write) hits
system.cpu.dcache.demand_hits::total            48649                       # number of demand (read+write) hits
system.cpu.dcache.overall_hits::.cpu.data        48649                       # number of overall hits
system.cpu.dcache.overall_hits::total           48649                       # number of overall hits
system.cpu.dcache.demand_misses::.cpu.data         2557                       # number of demand (read+write) misses
system.cpu.dcache.demand_misses::total           2557                       # number of demand (read+write) misses
system.cpu.dcache.overall_misses::.cpu.data         2557                       # number of overall misses
system.cpu.dcache.overall_misses::total          2557                       # number of overall misses
system.cpu.dcache.demand_miss_latency::.cpu.data    201443000                       # number of demand (read+write) miss cycles
system.cpu.dcache.demand_miss_latency::total    201443000                       # number of demand (read+write) miss cycles
system.cpu.dcache.overall_miss_latency::.cpu.data    201443000                       # number of overall miss cycles
system.cpu.dcache.overall_miss_latency::total    201443000                       # number of overall miss cycles
system.cpu.dcache.demand_accesses::.cpu.data        51206                       # number of demand (read+write) accesses
system.cpu.dcache.demand_accesses::total        51206                       # number of demand (read+write) accesses
system.cpu.dcache.overall_accesses::.cpu.data        51206                       # number of overall (read+write) accesses
system.cpu.dcache.overall_accesses::total        51206                       # number of overall (read+write) accesses
system.cpu.dcache.demand_miss_rate::.cpu.data     0.049936                       # miss rate for demand accesses
system.cpu.dcache.demand_miss_rate::total     0.049936                       # miss rate for demand accesses
system.cpu.dcache.overall_miss_rate::.cpu.data     0.049936                       # miss rate for overall accesses
system.cpu.dcache.overall_miss_rate::total     0.049936                       # miss rate for overall accesses
system.cpu.dcache.demand_avg_miss_latency::.cpu.data 78780.993352                       # average overall miss latency
system.cpu.dcache.demand_avg_miss_latency::total 78780.993352                       # average overall miss latency
system.cpu.dcache.overall_avg_miss_latency::.cpu.data 78780.993352                       # average overall miss latency
system.cpu.dcache.overall_avg_miss_latency::total 78780.993352                       # average overall miss latency
system.cpu.dcache.blocked_cycles::no_mshrs            0                       # number of cycles access was blocked
system.cpu.dcache.blocked_cycles::no_targets            0                       # number of cycles access was blocked
system.cpu.dcache.blocked::no_mshrs                 0                       # number of cycles access was blocked
system.cpu.dcache.blocked::no_targets               0                       # number of cycles access was blocked
system.cpu.dcache.avg_blocked_cycles::no_mshrs          nan                       # average number of cycles each access was blocked
system.cpu.dcache.avg_blocked_cycles::no_targets          nan                       # average number of cycles each access was blocked
system.cpu.dcache.writebacks::.writebacks           13                       # number of writebacks
system.cpu.dcache.writebacks::total                13                       # number of writebacks
system.cpu.dcache.demand_mshr_misses::.cpu.data         2557                       # number of demand (read+write) MSHR misses
system.cpu.dcache.demand_mshr_misses::total         2557                       # number of demand (read+write) MSHR misses
system.cpu.dcache.overall_mshr_misses::.cpu.data         2557                       # number of overall MSHR misses
system.cpu.dcache.overall_mshr_misses::total         2557                       # number of overall MSHR misses
system.cpu.dcache.demand_mshr_miss_latency::.cpu.data    198886000                       # number of demand (read+write) MSHR miss cycles
system.cpu.dcache.demand_mshr_miss_latency::total    198886000                       # number of demand (read+write) MSHR miss cycles
system.cpu.dcache.overall_mshr_miss_latency::.cpu.data    198886000                       # number of overall MSHR miss cycles
system.cpu.dcache.overall_mshr_miss_latency::total    198886000                       # number of overall MSHR miss cycles
system.cpu.dcache.demand_mshr_miss_rate::.cpu.data     0.049936                       # mshr miss rate for demand accesses
system.cpu.dcache.demand_mshr_miss_rate::total     0.049936                       # mshr miss rate for demand accesses
system.cpu.dcache.overall_mshr_miss_rate::.cpu.data     0.049936                       # mshr miss rate for overall accesses
system.cpu.dcache.overall_mshr_miss_rate::total     0.049936                       # mshr miss rate for overall accesses
system.cpu.dcache.demand_avg_mshr_miss_latency::.cpu.data 77780.993352                       # average overall mshr miss latency
system.cpu.dcache.demand_avg_mshr_miss_latency::total 77780.993352                       # average overall mshr miss latency
system.cpu.dcache.overall_avg_mshr_miss_latency::.cpu.data 77780.993352                       # average overall mshr miss latency
system.cpu.dcache.overall_avg_mshr_miss_latency::total 77780.993352                       # average overall mshr miss latency
system.cpu.dcache.replacements                     36                       # number of replacements
system.cpu.dcache.ReadReq_hits::.cpu.data        36856                       # number of ReadReq hits
system.cpu.dcache.ReadReq_hits::total           36856                       # number of ReadReq hits
system.cpu.dcache.ReadReq_misses::.cpu.data         1998                       # number of ReadReq misses
system.cpu.dcache.ReadReq_misses::total          1998                       # number of ReadReq misses
system.cpu.dcache.ReadReq_miss_latency::.cpu.data    158107000                       # number of ReadReq miss cycles
system.cpu.dcache.ReadReq_miss_latency::total    158107000                       # number of ReadReq miss cycles
system.cpu.dcache.ReadReq_accesses::.cpu.data        38854                       # number of ReadReq accesses(hits+misses)
system.cpu.dcache.ReadReq_accesses::total        38854                       # number of ReadReq accesses(hits+misses)
system.cpu.dcache.ReadReq_miss_rate::.cpu.data     0.051423                       # miss rate for ReadReq accesses
system.cpu.dcache.ReadReq_miss_rate::total     0.051423                       # miss rate for ReadReq accesses
system.cpu.dcache.ReadReq_avg_miss_latency::.cpu.data 79132.632633                       # average ReadReq miss latency
system.cpu.dcache.ReadReq_avg_miss_latency::total 79132.632633                       # average ReadReq miss latency
system.cpu.dcache.ReadReq_mshr_misses::.cpu.data         1998                       # number of ReadReq MSHR misses
system.cpu.dcache.ReadReq_mshr_misses::total         1998                       # number of ReadReq MSHR misses
system.cpu.dcache.ReadReq_mshr_miss_latency::.cpu.data    156109000                       # number of ReadReq MSHR miss cycles
system.cpu.dcache.ReadReq_mshr_miss_latency::total    156109000                       # number of ReadReq MSHR miss cycles
system.cpu.dcache.ReadReq_mshr_miss_rate::.cpu.data     0.051423                       # mshr miss rate for ReadReq accesses
system.cpu.dcache.ReadReq_mshr_miss_rate::total     0.051423                       # mshr miss rate for ReadReq accesses
system.cpu.dcache.ReadReq_avg_mshr_miss_latency::.cpu.data 78132.632633                       # average ReadReq mshr miss latency
system.cpu.dcache.ReadReq_avg_mshr_miss_latency::total 78132.632633                       # average ReadReq mshr miss latency
system.cpu.dcache.WriteReq_hits::.cpu.data        11793                       # number of WriteReq hits
system.cpu.dcache.WriteReq_hits::total          11793                       # number of WriteReq hits
system.cpu.dcache.WriteReq_misses::.cpu.data          559                       # number of WriteReq misses
system.cpu.dcache.WriteReq_misses::total          559                       # number of WriteReq misses
system.cpu.dcache.WriteReq_miss_latency::.cpu.data     43336000                       # number of WriteReq miss cycles
system.cpu.dcache.WriteReq_miss_latency::total     43336000                       # number of WriteReq miss cycles
system.cpu.dcache.WriteReq_accesses::.cpu.data        12352                       # number of WriteReq accesses(hits+misses)
system.cpu.dcache.WriteReq_accesses::total        12352                       # number of WriteReq accesses(hits+misses)
system.cpu.dcache.WriteReq_miss_rate::.cpu.data     0.045256                       # miss rate for WriteReq accesses
system.cpu.dcache.WriteReq_miss_rate::total     0.045256                       # miss rate for WriteReq accesses
system.cpu.dcache.WriteReq_avg_miss_latency::.cpu.data 77524.150268                       # average WriteReq miss latency
system.cpu.dcache.WriteReq_avg_miss_latency::total 77524.150268                       # average WriteReq miss latency
system.cpu.dcache.WriteReq_mshr_misses::.cpu.data          559                       # number of WriteReq MSHR misses
system.cpu.dcache.WriteReq_mshr_misses::total          559                       # number of WriteReq MSHR misses
system.cpu.dcache.WriteReq_mshr_miss_latency::.cpu.data     42777000                       # number of WriteReq MSHR miss cycles
system.cpu.dcache.WriteReq_mshr_miss_latency::total     42777000                       # number of WriteReq MSHR miss cycles
system.cpu.dcache.WriteReq_mshr_miss_rate::.cpu.data     0.045256                       # mshr miss rate for WriteReq accesses
system.cpu.dcache.WriteReq_mshr_miss_rate::total     0.045256                       # mshr miss rate for WriteReq accesses
system.cpu.dcache.WriteReq_avg_mshr_miss_latency::.cpu.data 76524.150268                       # average WriteReq mshr miss latency
system.cpu.dcache.WriteReq_avg_mshr_miss_latency::total 76524.150268                       # average WriteReq mshr miss latency
system.cpu.dcache.power_state.pwrStateResidencyTicks::UNDEFINED    548749500                       # Cumulative time (in ticks) in various power states
system.cpu.dcache.tags.tagsinuse          1361.232060                       # Cycle average of tags in use
system.cpu.dcache.tags.total_refs               51206                       # Total number of references to valid blocks.
system.cpu.dcache.tags.sampled_refs              2557                       # Sample count of references to valid blocks.
system.cpu.dcache.tags.avg_refs             20.025811                       # Average number of references to valid blocks.
system.cpu.dcache.tags.warmup_cycle            174500                       # Cycle when the warmup percentage was hit.
system.cpu.dcache.tags.occ_blocks::.cpu.data  1361.232060                       # Average occupied blocks per requestor
system.cpu.dcache.tags.occ_percent::.cpu.data     0.332332                       # Average percentage of cache occupancy
system.cpu.dcache.tags.occ_percent::total     0.332332                       # Average percentage of cache occupancy
system.cpu.dcache.tags.occ_task_id_blocks::1024         2521                       # Occupied blocks per task id
system.cpu.dcache.tags.age_task_id_blocks_1024::0            7                       # Occupied blocks per task id
system.cpu.dcache.tags.age_task_id_blocks_1024::1          379                       # Occupied blocks per task id
system.cpu.dcache.tags.age_task_id_blocks_1024::2         2135                       # Occupied blocks per task id
system.cpu.dcache.tags.occ_task_id_percent::1024     0.615479                       # Percentage of cache occupancy per task id
system.cpu.dcache.tags.tag_accesses            104969                       # Number of tag accesses
system.cpu.dcache.tags.data_accesses           104969                       # Number of data accesses
system.cpu.dcache.tags.power_state.pwrStateResidencyTicks::UNDEFINED    548749500                       # Cumulative time (in ticks) in various power states
system.cpu.dtb.rdAccesses                       38897                       # TLB accesses on read requests
system.cpu.dtb.wrAccesses                       12365                       # TLB accesses on write requests
system.cpu.dtb.rdMisses                           148                       # TLB misses on read requests
system.cpu.dtb.wrMisses                            34                       # TLB misses on write requests
system.cpu.dtb.walker.power_state.pwrStateResidencyTicks::UNDEFINED    548749500                       # Cumulative time (in ticks) in various power states
system.cpu.dtb_walker_cache.blocked_cycles::no_mshrs            0                       # number of cycles access was blocked
system.cpu.dtb_walker_cache.blocked_cycles::no_targets            0                       # number of cycles access was blocked
system.cpu.dtb_walker_cache.blocked::no_mshrs            0                       # number of cycles access was blocked
system.cpu.dtb_walker_cache.blocked::no_targets            0                       # number of cycles access was blocked
system.cpu.dtb_walker_cache.avg_blocked_cycles::no_mshrs          nan                       # average number of cycles each access was blocked
system.cpu.dtb_walker_cache.avg_blocked_cycles::no_targets          nan                       # average number of cycles each access was blocked
system.cpu.dtb_walker_cache.replacements            0                       # number of replacements
system.cpu.dtb_walker_cache.power_state.pwrStateResidencyTicks::UNDEFINED    548749500                       # Cumulative time (in ticks) in various power states
system.cpu.dtb_walker_cache.tags.tagsinuse            0                       # Cycle average of tags in use
system.cpu.dtb_walker_cache.tags.total_refs            0                       # Total number of references to valid blocks.
system.cpu.dtb_walker_cache.tags.sampled_refs            0                       # Sample count of references to valid blocks.
system.cpu.dtb_walker_cache.tags.avg_refs          nan                       # Average number of references to valid blocks.
system.cpu.dtb_walker_cache.tags.warmup_cycle            0                       # Cycle when the warmup percentage was hit.
system.cpu.dtb_walker_cache.tags.tag_accesses            0                       # Number of tag accesses
system.cpu.dtb_walker_cache.tags.data_accesses            0                       # Number of data accesses
system.cpu.dtb_walker_cache.tags.power_state.pwrStateResidencyTicks::UNDEFINED    548749500                       # Cumulative time (in ticks) in various power states
system.cpu.icache.demand_hits::.cpu.inst       217671                       # number of demand (read+write) hits
system.cpu.icache.demand_hits::total           217671                       # number of demand (read+write) hits
system.cpu.icache.overall_hits::.cpu.inst       217671                       # number of overall hits
system.cpu.icache.overall_hits::total          217671                       # number of overall hits
system.cpu.icache.demand_misses::.cpu.inst         1034                       # number of demand (read+write) misses
system.cpu.icache.demand_misses::total           1034                       # number of demand (read+write) misses
system.cpu.icache.overall_misses::.cpu.inst         1034                       # number of overall misses
system.cpu.icache.overall_misses::total          1034                       # number of overall misses
system.cpu.icache.demand_miss_latency::.cpu.inst     80989500                       # number of demand (read+write) miss cycles
system.cpu.icache.demand_miss_latency::total     80989500                       # number of demand (read+write) miss cycles
system.cpu.icache.overall_miss_latency::.cpu.inst     80989500                       # number of overall miss cycles
system.cpu.icache.overall_miss_latency::total     80989500                       # number of overall miss cycles
system.cpu.icache.demand_accesses::.cpu.inst       218705                       # number of demand (read+write) accesses
system.cpu.icache.demand_accesses::total       218705                       # number of demand (read+write) accesses
system.cpu.icache.overall_accesses::.cpu.inst       218705                       # number of overall (read+write) accesses
system.cpu.icache.overall_accesses::total       218705                       # number of overall (read+write) accesses
system.cpu.icache.demand_miss_rate::.cpu.inst     0.004728                       # miss rate for demand accesses
system.cpu.icache.demand_miss_rate::total     0.004728                       # miss rate for demand accesses
system.cpu.icache.overall_miss_rate::.cpu.inst     0.004728                       # miss rate for overall accesses
system.cpu.icache.overall_miss_rate::total     0.004728                       # miss rate for overall accesses
system.cpu.icache.demand_avg_miss_latency::.cpu.inst 78326.402321                       # average overall miss latency
system.cpu.icache.demand_avg_miss_latency::total 78326.402321                       # average overall miss latency
system.cpu.icache.overall_avg_miss_latency::.cpu.inst 78326.402321                       # average overall miss latency
system.cpu.icache.overall_avg_miss_latency::total 78326.402321                       # average overall miss latency
system.cpu.icache.blocked_cycles::no_mshrs            0                       # number of cycles access was blocked
system.cpu.icache.blocked_cycles::no_targets            0                       # number of cycles access was blocked
system.cpu.icache.blocked::no_mshrs                 0                       # number of cycles access was blocked
system.cpu.icache.blocked::no_targets               0                       # number of cycles access was blocked
system.cpu.icache.avg_blocked_cycles::no_mshrs          nan                       # average number of cycles each access was blocked
system.cpu.icache.avg_blocked_cycles::no_targets          nan                       # average number of cycles each access was blocked
system.cpu.icache.writebacks::.writebacks           16                       # number of writebacks
system.cpu.icache.writebacks::total                16                       # number of writebacks
system.cpu.icache.demand_mshr_misses::.cpu.inst         1034                       # number of demand (read+write) MSHR misses
system.cpu.icache.demand_mshr_misses::total         1034                       # number of demand (read+write) MSHR misses
system.cpu.icache.overall_mshr_misses::.cpu.inst         1034                       # number of overall MSHR misses
system.cpu.icache.overall_mshr_misses::total         1034                       # number of overall MSHR misses
system.cpu.icache.demand_mshr_miss_latency::.cpu.inst     79955500                       # number of demand (read+write) MSHR miss cycles
system.cpu.icache.demand_mshr_miss_latency::total     79955500                       # number of demand (read+write) MSHR miss cycles
system.cpu.icache.overall_mshr_miss_latency::.cpu.inst     79955500                       # number of overall MSHR miss cycles
system.cpu.icache.overall_mshr_miss_latency::total     79955500                       # number of overall MSHR miss cycles
system.cpu.icache.demand_mshr_miss_rate::.cpu.inst     0.004728                       # mshr miss rate for demand accesses
system.cpu.icache.demand_mshr_miss_rate::total     0.004728                       # mshr miss rate for demand accesses
system.cpu.icache.overall_mshr_miss_rate::.cpu.inst     0.004728                       # mshr miss rate for overall accesses
system.cpu.icache.overall_mshr_miss_rate::total     0.004728                       # mshr miss rate for overall accesses
system.cpu.icache.demand_avg_mshr_miss_latency::.cpu.inst 77326.402321                       # average overall mshr miss latency
system.cpu.icache.demand_avg_mshr_miss_latency::total 77326.402321                       # average overall mshr miss latency
system.cpu.icache.overall_avg_mshr_miss_latency::.cpu.inst 77326.402321                       # average overall mshr miss latency
system.cpu.icache.overall_avg_mshr_miss_latency::total 77326.402321                       # average overall mshr miss latency
system.cpu.icache.replacements                     16                       # number of replacements
system.cpu.icache.ReadReq_hits::.cpu.inst       217671                       # number of ReadReq hits
system.cpu.icache.ReadReq_hits::total          217671                       # number of ReadReq hits
system.cpu.icache.ReadReq_misses::.cpu.inst         1034                       # number of ReadReq misses
system.cpu.icache.ReadReq_misses::total          1034                       # number of ReadReq misses
system.cpu.icache.ReadReq_miss_latency::.cpu.inst     80989500                       # number of ReadReq miss cycles
system.cpu.icache.ReadReq_miss_latency::total     80989500                       # number of ReadReq miss cycles
system.cpu.icache.ReadReq_accesses::.cpu.inst       218705                       # number of ReadReq accesses(hits+misses)
system.cpu.icache.ReadReq_accesses::total       218705                       # number of ReadReq accesses(hits+misses)
system.cpu.icache.ReadReq_miss_rate::.cpu.inst     0.004728                       # miss rate for ReadReq accesses
system.cpu.icache.ReadReq_miss_rate::total     0.004728                       # miss rate for ReadReq accesses
system.cpu.icache.ReadReq_avg_miss_latency::.cpu.inst 78326.402321                       # average ReadReq miss latency
system.cpu.icache.ReadReq_avg_miss_latency::total 78326.402321                       # average ReadReq miss latency
system.cpu.icache.ReadReq_mshr_misses::.cpu.inst         1034                       # number of ReadReq MSHR misses
system.cpu.icache.ReadReq_mshr_misses::total         1034                       # number of ReadReq MSHR misses
system.cpu.icache.ReadReq_mshr_miss_latency::.cpu.inst     79955500                       # number of ReadReq MSHR miss cycles
system.cpu.icache.ReadReq_mshr_miss_latency::total     79955500                       # number of ReadReq MSHR miss cycles
system.cpu.icache.ReadReq_mshr_miss_rate::.cpu.inst     0.004728                       # mshr miss rate for ReadReq accesses
system.cpu.icache.ReadReq_mshr_miss_rate::total     0.004728                       # mshr miss rate for ReadReq accesses
system.cpu.icache.ReadReq_avg_mshr_miss_latency::.cpu.inst 77326.402321                       # average ReadReq mshr miss latency
system.cpu.icache.ReadReq_avg_mshr_miss_latency::total 77326.402321                       # average ReadReq mshr miss latency
system.cpu.icache.power_state.pwrStateResidencyTicks::UNDEFINED    548749500                       # Cumulative time (in ticks) in various power states
system.cpu.icache.tags.tagsinuse           614.974199                       # Cycle average of tags in use
system.cpu.icache.tags.total_refs              218705                       # Total number of references to valid blocks.
system.cpu.icache.tags.sampled_refs              1034                       # Sample count of references to valid blocks.
system.cpu.icache.tags.avg_refs            211.513540                       # Average number of references to valid blocks.
system.cpu.icache.tags.warmup_cycle             87500                       # Cycle when the warmup percentage was hit.
system.cpu.icache.tags.occ_blocks::.cpu.inst   614.974199                       # Average occupied blocks per requestor
system.cpu.icache.tags.occ_percent::.cpu.inst     0.150140                       # Average percentage of cache occupancy
system.cpu.icache.tags.occ_percent::total     0.150140                       # Average percentage of cache occupancy
system.cpu.icache.tags.occ_task_id_blocks::1024         1018                       # Occupied blocks per task id
system.cpu.icache.tags.age_task_id_blocks_1024::0           73                       # Occupied blocks per task id
system.cpu.icache.tags.age_task_id_blocks_1024::1          175                       # Occupied blocks per task id
system.cpu.icache.tags.age_task_id_blocks_1024::2          770                       # Occupied blocks per task id
system.cpu.icache.tags.occ_task_id_percent::1024     0.248535                       # Percentage of cache occupancy per task id
system.cpu.icache.tags.tag_accesses            438444                       # Number of tag accesses
system.cpu.icache.tags.data_accesses           438444                       # Number of data accesses
system.cpu.icache.tags.power_state.pwrStateResidencyTicks::UNDEFINED    548749500                       # Cumulative time (in ticks) in various power states
system.cpu.interrupts.clk_domain.clock           8000                       # Clock period in ticks
system.cpu.itb.rdAccesses                           0                       # TLB accesses on read requests
system.cpu.itb.wrAccesses                      218747                       # TLB accesses on write requests
system.cpu.itb.rdMisses                             0                       # TLB misses on read requests
system.cpu.itb.wrMisses                           159                       # TLB misses on write requests
system.cpu.itb.walker.power_state.pwrStateResidencyTicks::UNDEFINED    548749500                       # Cumulative time (in ticks) in various power states
system.cpu.itb_walker_cache.blocked_cycles::no_mshrs            0                       # number of cycles access was blocked
system.cpu.itb_walker_cache.blocked_cycles::no_targets            0                       # number of cycles access was blocked
system.cpu.itb_walker_cache.blocked::no_mshrs            0                       # number of cycles access was blocked
system.cpu.itb_walker_cache.blocked::no_targets            0                       # number of cycles access was blocked
system.cpu.itb_walker_cache.avg_blocked_cycles::no_mshrs          nan                       # average number of cycles each access was blocked
system.cpu.itb_walker_cache.avg_blocked_cycles::no_targets          nan                       # average number of cycles each access was blocked
system.cpu.itb_walker_cache.replacements            0                       # number of replacements
system.cpu.itb_walker_cache.power_state.pwrStateResidencyTicks::UNDEFINED    548749500                       # Cumulative time (in ticks) in various power states
system.cpu.itb_walker_cache.tags.tagsinuse            0                       # Cycle average of tags in use
system.cpu.itb_walker_cache.tags.total_refs            0                       # Total number of references to valid blocks.
system.cpu.itb_walker_cache.tags.sampled_refs            0                       # Sample count of references to valid blocks.
system.cpu.itb_walker_cache.tags.avg_refs          nan                       # Average number of references to valid blocks.
system.cpu.itb_walker_cache.tags.warmup_cycle            0                       # Cycle when the warmup percentage was hit.
system.cpu.itb_walker_cache.tags.tag_accesses            0                       # Number of tag accesses
system.cpu.itb_walker_cache.tags.data_accesses            0                       # Number of data accesses
system.cpu.itb_walker_cache.tags.power_state.pwrStateResidencyTicks::UNDEFINED    548749500                       # Cumulative time (in ticks) in various power states
system.cpu.power_state.pwrStateResidencyTicks::ON    548749500                       # Cumulative time (in ticks) in various power states
system.cpu.thread_0.numInsts                        0                       # Number of Instructions committed
system.cpu.thread_0.numOps                          0                       # Number of Ops committed
system.cpu.thread_0.numMemRefs                      0                       # Number of Memory References
system.cpu_clk_domain.clock                       500                       # Clock period in ticks
system.cpu_voltage_domain.voltage                   1                       # Voltage in Volts
system.l2.demand_hits::.cpu.data                    3                       # number of demand (read+write) hits
system.l2.demand_hits::total                        3                       # number of demand (read+write) hits
system.l2.overall_hits::.cpu.data                   3                       # number of overall hits
system.l2.overall_hits::total                       3                       # number of overall hits
system.l2.demand_misses::.cpu.inst               1034                       # number of demand (read+write) misses
system.l2.demand_misses::.cpu.data               2554                       # number of demand (read+write) misses
system.l2.demand_misses::total                   3588                       # number of demand (read+write) misses
system.l2.overall_misses::.cpu.inst              1034                       # number of overall misses
system.l2.overall_misses::.cpu.data              2554                       # number of overall misses
system.l2.overall_misses::total                  3588                       # number of overall misses
system.l2.demand_miss_latency::.cpu.inst     78404500                       # number of demand (read+write) miss cycles
system.l2.demand_miss_latency::.cpu.data    195019000                       # number of demand (read+write) miss cycles
system.l2.demand_miss_latency::total        273423500                       # number of demand (read+write) miss cycles
system.l2.overall_miss_latency::.cpu.inst     78404500                       # number of overall miss cycles
system.l2.overall_miss_latency::.cpu.data    195019000                       # number of overall miss cycles
system.l2.overall_miss_latency::total       273423500                       # number of overall miss cycles
system.l2.demand_accesses::.cpu.inst             1034                       # number of demand (read+write) accesses
system.l2.demand_accesses::.cpu.data             2557                       # number of demand (read+write) accesses
system.l2.demand_accesses::total                 3591                       # number of demand (read+write) accesses
system.l2.overall_accesses::.cpu.inst            1034                       # number of overall (read+write) accesses
system.l2.overall_accesses::.cpu.data            2557                       # number of overall (read+write) accesses
system.l2.overall_accesses::total                3591                       # number of overall (read+write) accesses
system.l2.demand_miss_rate::.cpu.inst               1                       # miss rate for demand accesses
system.l2.demand_miss_rate::.cpu.data        0.998827                       # miss rate for demand accesses
system.l2.demand_miss_rate::total            0.999165                       # miss rate for demand accesses
system.l2.overall_miss_rate::.cpu.inst              1                       # miss rate for overall accesses
system.l2.overall_miss_rate::.cpu.data       0.998827                       # miss rate for overall accesses
system.l2.overall_miss_rate::total           0.999165                       # miss rate for overall accesses
system.l2.demand_avg_miss_latency::.cpu.inst 75826.402321                       # average overall miss latency
system.l2.demand_avg_miss_latency::.cpu.data 76358.261551                       # average overall miss latency
system.l2.demand_avg_miss_latency::total 76204.988852                       # average overall miss latency
system.l2.overall_avg_miss_latency::.cpu.inst 75826.402321                       # average overall miss latency
system.l2.overall_avg_miss_latency::.cpu.data 76358.261551                       # average overall miss latency
system.l2.overall_avg_miss_latency::total 76204.988852                       # average overall miss latency
system.l2.blocked_cycles::no_mshrs                  0                       # number of cycles access was blocked
system.l2.blocked_cycles::no_targets                0                       # number of cycles access was blocked
system.l2.blocked::no_mshrs                         0                       # number of cycles access was blocked
system.l2.blocked::no_targets                       0                       # number of cycles access was blocked
system.l2.avg_blocked_cycles::no_mshrs            nan                       # average number of cycles each access was blocked
system.l2.avg_blocked_cycles::no_targets          nan                       # average number of cycles each access was blocked
system.l2.demand_mshr_misses::.cpu.inst          1034                       # number of demand (read+write) MSHR misses
system.l2.demand_mshr_misses::.cpu.data          2554                       # number of demand (read+write) MSHR misses
system.l2.demand_mshr_misses::total              3588                       # number of demand (read+write) MSHR misses
system.l2.overall_mshr_misses::.cpu.inst         1034                       # number of overall MSHR misses
system.l2.overall_mshr_misses::.cpu.data         2554                       # number of overall MSHR misses
system.l2.overall_mshr_misses::total             3588                       # number of overall MSHR misses
system.l2.demand_mshr_miss_latency::.cpu.inst     68064500                       # number of demand (read+write) MSHR miss cycles
system.l2.demand_mshr_miss_latency::.cpu.data    169479000                       # number of demand (read+write) MSHR miss cycles
system.l2.demand_mshr_miss_latency::total    237543500                       # number of demand (read+write) MSHR miss cycles
system.l2.overall_mshr_miss_latency::.cpu.inst     68064500                       # number of overall MSHR miss cycles
system.l2.overall_mshr_miss_latency::.cpu.data    169479000                       # number of overall MSHR miss cycles
system.l2.overall_mshr_miss_latency::total    237543500                       # number of overall MSHR miss cycles
system.l2.demand_mshr_miss_rate::.cpu.inst            1                       # mshr miss rate for demand accesses
system.l2.demand_mshr_miss_rate::.cpu.data     0.998827                       # mshr miss rate for demand accesses
system.l2.demand_mshr_miss_rate::total       0.999165                       # mshr miss rate for demand accesses
system.l2.overall_mshr_miss_rate::.cpu.inst            1                       # mshr miss rate for overall accesses
system.l2.overall_mshr_miss_rate::.cpu.data     0.998827                       # mshr miss rate for overall accesses
system.l2.overall_mshr_miss_rate::total      0.999165                       # mshr miss rate for overall accesses
system.l2.demand_avg_mshr_miss_latency::.cpu.inst 65826.402321                       # average overall mshr miss latency
system.l2.demand_avg_mshr_miss_latency::.cpu.data 66358.261551                       # average overall mshr miss latency
system.l2.demand_avg_mshr_miss_latency::total 66204.988852                       # average overall mshr miss latency
system.l2.overall_avg_mshr_miss_latency::.cpu.inst 65826.402321                       # average overall mshr miss latency
system.l2.overall_avg_mshr_miss_latency::.cpu.data 66358.261551                       # average overall mshr miss latency
system.l2.overall_avg_mshr_miss_latency::total 66204.988852                       # average overall mshr miss latency
system.l2.replacements                              0                       # number of replacements
system.l2.WritebackDirty_hits::.writebacks           13                       # number of WritebackDirty hits
system.l2.WritebackDirty_hits::total               13                       # number of WritebackDirty hits
system.l2.WritebackDirty_accesses::.writebacks           13                       # number of WritebackDirty accesses(hits+misses)
system.l2.WritebackDirty_accesses::total           13                       # number of WritebackDirty accesses(hits+misses)
system.l2.WritebackClean_hits::.writebacks           16                       # number of WritebackClean hits
system.l2.WritebackClean_hits::total               16                       # number of WritebackClean hits
system.l2.WritebackClean_accesses::.writebacks           16                       # number of WritebackClean accesses(hits+misses)
system.l2.WritebackClean_accesses::total           16                       # number of WritebackClean accesses(hits+misses)
system.l2.ReadExReq_misses::.cpu.data             559                       # number of ReadExReq misses
system.l2.ReadExReq_misses::total                 559                       # number of ReadExReq misses
system.l2.ReadExReq_miss_latency::.cpu.data     41938500                       # number of ReadExReq miss cycles
system.l2.ReadExReq_miss_latency::total      41938500                       # number of ReadExReq miss cycles
system.l2.ReadExReq_accesses::.cpu.data           559                       # number of ReadExReq accesses(hits+misses)
system.l2.ReadExReq_accesses::total               559                       # number of ReadExReq accesses(hits+misses)
system.l2.ReadExReq_miss_rate::.cpu.data            1                       # miss rate for ReadExReq accesses
system.l2.ReadExReq_miss_rate::total                1                       # miss rate for ReadExReq accesses
system.l2.ReadExReq_avg_miss_latency::.cpu.data 75024.150268                       # average ReadExReq miss latency
system.l2.ReadExReq_avg_miss_latency::total 75024.150268                       # average ReadExReq miss latency
system.l2.ReadExReq_mshr_misses::.cpu.data          559                       # number of ReadExReq MSHR misses
system.l2.ReadExReq_mshr_misses::total            559                       # number of ReadExReq MSHR misses
system.l2.ReadExReq_mshr_miss_latency::.cpu.data     36348500                       # number of ReadExReq MSHR miss cycles
system.l2.ReadExReq_mshr_miss_latency::total     36348500                       # number of ReadExReq MSHR miss cycles
system.l2.ReadExReq_mshr_miss_rate::.cpu.data            1                       # mshr miss rate for ReadExReq accesses
system.l2.ReadExReq_mshr_miss_rate::total            1                       # mshr miss rate for ReadExReq accesses
system.l2.ReadExReq_avg_mshr_miss_latency::.cpu.data 65024.150268                       # average ReadExReq mshr miss latency
system.l2.ReadExReq_avg_mshr_miss_latency::total 65024.150268                       # average ReadExReq mshr miss latency
system.l2.ReadCleanReq_misses::.cpu.inst         1034                       # number of ReadCleanReq misses
system.l2.ReadCleanReq_misses::total             1034                       # number of ReadCleanReq misses
system.l2.ReadCleanReq_miss_latency::.cpu.inst     78404500                       # number of ReadCleanReq miss cycles
system.l2.ReadCleanReq_miss_latency::total     78404500                       # number of ReadCleanReq miss cycles
system.l2.ReadCleanReq_accesses::.cpu.inst         1034                       # number of ReadCleanReq accesses(hits+misses)
system.l2.ReadCleanReq_accesses::total           1034                       # number of ReadCleanReq accesses(hits+misses)
system.l2.ReadCleanReq_miss_rate::.cpu.inst            1                       # miss rate for ReadCleanReq accesses
system.l2.ReadCleanReq_miss_rate::total             1                       # miss rate for ReadCleanReq accesses
system.l2.ReadCleanReq_avg_miss_latency::.cpu.inst 75826.402321                       # average ReadCleanReq miss latency
system.l2.ReadCleanReq_avg_miss_latency::total 75826.402321                       # average ReadCleanReq miss latency
system.l2.ReadCleanReq_mshr_misses::.cpu.inst         1034                       # number of ReadCleanReq MSHR misses
system.l2.ReadCleanReq_mshr_misses::total         1034                       # number of ReadCleanReq MSHR misses
system.l2.ReadCleanReq_mshr_miss_latency::.cpu.inst     68064500                       # number of ReadCleanReq MSHR miss cycles
system.l2.ReadCleanReq_mshr_miss_latency::total     68064500                       # number of ReadCleanReq MSHR miss cycles
system.l2.ReadCleanReq_mshr_miss_rate::.cpu.inst            1                       # mshr miss rate for ReadCleanReq accesses
system.l2.ReadCleanReq_mshr_miss_rate::total            1                       # mshr miss rate for ReadCleanReq accesses
system.l2.ReadCleanReq_avg_mshr_miss_latency::.cpu.inst 65826.402321                       # average ReadCleanReq mshr miss latency
system.l2.ReadCleanReq_avg_mshr_miss_latency::total 65826.402321                       # average ReadCleanReq mshr miss latency
system.l2.ReadSharedReq_hits::.cpu.data             3                       # number of ReadSharedReq hits
system.l2.ReadSharedReq_hits::total                 3                       # number of ReadSharedReq hits
system.l2.ReadSharedReq_misses::.cpu.data         1995                       # number of ReadSharedReq misses
system.l2.ReadSharedReq_misses::total            1995                       # number of ReadSharedReq misses
system.l2.ReadSharedReq_miss_latency::.cpu.data    153080500                       # number of ReadSharedReq miss cycles
system.l2.ReadSharedReq_miss_latency::total    153080500                       # number of ReadSharedReq miss cycles
system.l2.ReadSharedReq_accesses::.cpu.data         1998                       # number of ReadSharedReq accesses(hits+misses)
system.l2.ReadSharedReq_accesses::total          1998                       # number of ReadSharedReq accesses(hits+misses)
system.l2.ReadSharedReq_miss_rate::.cpu.data     0.998498                       # miss rate for ReadSharedReq accesses
system.l2.ReadSharedReq_miss_rate::total     0.998498                       # miss rate for ReadSharedReq accesses
system.l2.ReadSharedReq_avg_miss_latency::.cpu.data 76732.080201                       # average ReadSharedReq miss latency
system.l2.ReadSharedReq_avg_miss_latency::total 76732.080201                       # average ReadSharedReq miss latency
system.l2.ReadSharedReq_mshr_misses::.cpu.data         1995                       # number of ReadSharedReq MSHR misses
system.l2.ReadSharedReq_mshr_misses::total         1995                       # number of ReadSharedReq MSHR misses
system.l2.ReadSharedReq_mshr_miss_latency::.cpu.data    133130500                       # number of ReadSharedReq MSHR miss cycles
system.l2.ReadSharedReq_mshr_miss_latency::total    133130500                       # number of ReadSharedReq MSHR miss cycles
system.l2.ReadSharedReq_mshr_miss_rate::.cpu.data     0.998498                       # mshr miss rate for ReadSharedReq accesses
system.l2.ReadSharedReq_mshr_miss_rate::total     0.998498                       # mshr miss rate for ReadSharedReq accesses
system.l2.ReadSharedReq_avg_mshr_miss_latency::.cpu.data 66732.080201                       # average ReadSharedReq mshr miss latency
system.l2.ReadSharedReq_avg_mshr_miss_latency::total 66732.080201                       # average ReadSharedReq mshr miss latency
system.l2.power_state.pwrStateResidencyTicks::UNDEFINED    548749500                       # Cumulative time (in ticks) in various power states
system.l2.tags.tagsinuse                  1983.077369                       # Cycle average of tags in use
system.l2.tags.total_refs                        3643                       # Total number of references to valid blocks.
system.l2.tags.sampled_refs                      3588                       # Sample count of references to valid blocks.
system.l2.tags.avg_refs                      1.015329                       # Average number of references to valid blocks.
system.l2.tags.warmup_cycle                     77000                       # Cycle when the warmup percentage was hit.
system.l2.tags.occ_blocks::.cpu.inst       616.705306                       # Average occupied blocks per requestor
system.l2.tags.occ_blocks::.cpu.data      1366.372063                       # Average occupied blocks per requestor
system.l2.tags.occ_percent::.cpu.inst        0.037641                       # Average percentage of cache occupancy
system.l2.tags.occ_percent::.cpu.data        0.083397                       # Average percentage of cache occupancy
system.l2.tags.occ_percent::total            0.121037                       # Average percentage of cache occupancy
system.l2.tags.occ_task_id_blocks::1024          3588                       # Occupied blocks per task id
system.l2.tags.age_task_id_blocks_1024::0           78                       # Occupied blocks per task id
system.l2.tags.age_task_id_blocks_1024::1          553                       # Occupied blocks per task id
system.l2.tags.age_task_id_blocks_1024::2         2957                       # Occupied blocks per task id
system.l2.tags.occ_task_id_percent::1024     0.218994                       # Percentage of cache occupancy per task id
system.l2.tags.tag_accesses                      7231                       # Number of tag accesses
system.l2.tags.data_accesses                     7231                       # Number of data accesses
system.l2.tags.power_state.pwrStateResidencyTicks::UNDEFINED    548749500                       # Cumulative time (in ticks) in various power states
system.mem_ctrls.avgPriority_.cpu.inst::samples      1034.00                       # Average QoS priority value for accepted requests
system.mem_ctrls.avgPriority_.cpu.data::samples      2554.00                       # Average QoS priority value for accepted requests
system.mem_ctrls.priorityMinLatency      0.000000018750                       # per QoS priority minimum request to response latency (s)
system.mem_ctrls.priorityMaxLatency      0.000000577500                       # per QoS priority maximum request to response latency (s)
system.mem_ctrls.numReadWriteTurnArounds            0                       # Number of turnarounds from READ to WRITE
system.mem_ctrls.numWriteReadTurnArounds            0                       # Number of turnarounds from WRITE to READ
system.mem_ctrls.numStayReadState                7316                       # Number of times bus staying in READ state
system.mem_ctrls.numStayWriteState                  0                       # Number of times bus staying in WRITE state
system.mem_ctrls.readReqs                        3588                       # Number of read requests accepted
system.mem_ctrls.writeReqs                          0                       # Number of write requests accepted
system.mem_ctrls.readBursts                      3588                       # Number of controller read bursts, including those serviced by the write queue
system.mem_ctrls.writeBursts                        0                       # Number of controller write bursts, including those merged in the write queue
system.mem_ctrls.servicedByWrQ                      0                       # Number of controller read bursts serviced by the write queue
system.mem_ctrls.mergedWrBursts                     0                       # Number of controller write bursts merged with an existing one
system.mem_ctrls.neitherReadNorWriteReqs            0                       # Number of requests that are neither read nor write
system.mem_ctrls.avgRdQLen                       1.00                       # Average read queue length when enqueuing
system.mem_ctrls.avgWrQLen                       0.00                       # Average write queue length when enqueuing
system.mem_ctrls.numRdRetry                         0                       # Number of times read queue was full causing retry
system.mem_ctrls.numWrRetry                         0                       # Number of times write queue was full causing retry
system.mem_ctrls.readPktSize::0                     0                       # Read request sizes (log2)
system.mem_ctrls.readPktSize::1                     0                       # Read request sizes (log2)
system.mem_ctrls.readPktSize::2                     0                       # Read request sizes (log2)
system.mem_ctrls.readPktSize::3                     0                       # Read request sizes (log2)
system.mem_ctrls.readPktSize::4                     0                       # Read request sizes (log2)
system.mem_ctrls.readPktSize::5                     0                       # Read request sizes (log2)
system.mem_ctrls.readPktSize::6                  3588                       # Read request sizes (log2)
system.mem_ctrls.writePktSize::0                    0                       # Write request sizes (log2)
system.mem_ctrls.writePktSize::1                    0                       # Write request sizes (log2)
system.mem_ctrls.writePktSize::2                    0                       # Write request sizes (log2)
system.mem_ctrls.writePktSize::3                    0                       # Write request sizes (log2)
system.mem_ctrls.writePktSize::4                    0                       # Write request sizes (log2)
system.mem_ctrls.writePktSize::5                    0                       # Write request sizes (log2)
system.mem_ctrls.writePktSize::6                    0                       # Write request sizes (log2)
system.mem_ctrls.rdQLenPdf::0                    3588                       # What read queue length does an incoming req see
system.mem_ctrls.rdQLenPdf::1                       0                       # What read queue length does an incoming req see
system.mem_ctrls.rdQLenPdf::2                       0                       # What read queue length does an incoming req see
system.mem_ctrls.rdQLenPdf::3                       0                       # What read queue length does an incoming req see
system.mem_ctrls.rdQLenPdf::4                       0                       # What read queue length does an incoming req see
system.mem_ctrls.rdQLenPdf::5                       0                       # What read queue length does an incoming req see
system.mem_ctrls.rdQLenPdf::6                       0                       # What read queue length does an incoming req see
system.mem_ctrls.rdQLenPdf::7                       0                       # What read queue length does an incoming req see
system.mem_ctrls.rdQLenPdf::8                       0                       # What read queue length does an incoming req see
system.mem_ctrls.rdQLenPdf::9                       0                       # What read queue length does an incoming req see
system.mem_ctrls.rdQLenPdf::10                      0                       # What read queue length does an incoming req see
system.mem_ctrls.rdQLenPdf::11                      0                       # What read queue length does an incoming req see
system.mem_ctrls.rdQLenPdf::12                      0                       # What read queue length does an incoming req see
system.mem_ctrls.rdQLenPdf::13                      0                       # What read queue length does an incoming req see
system.mem_ctrls.rdQLenPdf::14                      0                       # What read queue length does an incoming req see
system.mem_ctrls.rdQLenPdf::15                      0                       # What read queue length does an incoming req see
system.mem_ctrls.rdQLenPdf::16                      0                       # What read queue length does an incoming req see
system.mem_ctrls.rdQLenPdf::17                      0                       # What read queue length does an incoming req see
system.mem_ctrls.rdQLenPdf::18                      0                       # What read queue length does an incoming req see
system.mem_ctrls.rdQLenPdf::19                      0                       # What read queue length does an incoming req see
system.mem_ctrls.rdQLenPdf::20                      0                       # What read queue length does an incoming req see
system.mem_ctrls.rdQLenPdf::21                      0                       # What read queue length does an incoming req see
system.mem_ctrls.rdQLenPdf::22                      0                       # What read queue length does an incoming req see
system.mem_ctrls.rdQLenPdf::23                      0                       # What read queue length does an incoming req see
system.mem_ctrls.rdQLenPdf::24                      0                       # What read queue length does an incoming req see
system.mem_ctrls.rdQLenPdf::25                      0                       # What read queue length does an incoming req see
system.mem_ctrls.rdQLenPdf::26                      0                       # What read queue length does an incoming req see
system.mem_ctrls.rdQLenPdf::27                      0                       # What read queue length does an incoming req see
system.mem_ctrls.rdQLenPdf::28                      0                       # What read queue length does an incoming req see
system.mem_ctrls.rdQLenPdf::29                      0                       # What read queue length does an incoming req see
system.mem_ctrls.rdQLenPdf::30                      0                       # What read queue length does an incoming req see
system.mem_ctrls.rdQLenPdf::31                      0                       # What read queue length does an incoming req see
system.mem_ctrls.wrQLenPdf::0                       0                       # What write queue length does an incoming req see
system.mem_ctrls.wrQLenPdf::1                       0                       # What write queue length does an incoming req see
system.mem_ctrls.wrQLenPdf::2                       0                       # What write queue length does an incoming req see
system.mem_ctrls.wrQLenPdf::3                       0                       # What write queue length does an incoming req see
system.mem_ctrls.wrQLenPdf::4                       0                       # What write queue length does an incoming req see
system.mem_ctrls.wrQLenPdf::5                       0                       # What write queue length does an incoming req see
system.mem_ctrls.wrQLenPdf::6                       0                       # What write queue length does an incoming req see
system.mem_ctrls.wrQLenPdf::7                       0                       # What write queue length does an incoming req see
system.mem_ctrls.wrQLenPdf::8                       0                       # What write queue length does an incoming req see
system.mem_ctrls.wrQLenPdf::9                       0                       # What write queue length does an incoming req see
system.mem_ctrls.wrQLenPdf::10                      0                       # What write queue length does an incoming req see
system.mem_ctrls.wrQLenPdf::11                      0                       # What write queue length does an incoming req see
system.mem_ctrls.wrQLenPdf::12                      0                       # What write queue length does an incoming req see
system.mem_ctrls.wrQLenPdf::13                      0                       # What write queue length does an incoming req see
system.mem_ctrls.wrQLenPdf::14                      0                       # What write queue length does an incoming req see
system.mem_ctrls.wrQLenPdf::15                      0                       # What write queue length does an incoming req see
system.mem_ctrls.wrQLenPdf::16                      0                       # What write queue length does an incoming req see
system.mem_ctrls.wrQLenPdf::17                      0                       # What write queue length does an incoming req see
system.mem_ctrls.wrQLenPdf::18                      0                       # What write queue length does an incoming req see
system.mem_ctrls.wrQLenPdf::19                      0                       # What write queue length does an incoming req see
system.mem_ctrls.wrQLenPdf::20                      0                       # What write queue length does an incoming req see
system.mem_ctrls.wrQLenPdf::21                      0                       # What write queue length does an incoming req see
system.mem_ctrls.wrQLenPdf::22                      0                       # What write queue length does an incoming req see
system.mem_ctrls.wrQLenPdf::23                      0                       # What write queue length does an incoming req see
system.mem_ctrls.wrQLenPdf::24                      0                       # What write queue length does an incoming req see
system.mem_ctrls.wrQLenPdf::25                      0                       # What write queue length does an incoming req see
system.mem_ctrls.wrQLenPdf::26                      0                       # What write queue length does an incoming req see
system.mem_ctrls.wrQLenPdf::27                      0                       # What write queue length does an incoming req see
system.mem_ctrls.wrQLenPdf::28                      0                       # What write queue length does an incoming req see
system.mem_ctrls.wrQLenPdf::29                      0                       # What write queue length does an incoming req see
system.mem_ctrls.wrQLenPdf::30                      0                       # What write queue length does an incoming req see
system.mem_ctrls.wrQLenPdf::31                      0                       # What write queue length does an incoming req see
system.mem_ctrls.wrQLenPdf::32                      0                       # What write queue length does an incoming req see
system.mem_ctrls.wrQLenPdf::33                      0                       # What write queue length does an incoming req see
system.mem_ctrls.wrQLenPdf::34                      0                       # What write queue length does an incoming req see
system.mem_ctrls.wrQLenPdf::35                      0                       # What write queue length does an incoming req see
system.mem_ctrls.wrQLenPdf::36                      0                       # What write queue length does an incoming req see
system.mem_ctrls.wrQLenPdf::37                      0                       # What write queue length does an incoming req see
system.mem_ctrls.wrQLenPdf::38                      0                       # What write queue length does an incoming req see
system.mem_ctrls.wrQLenPdf::39                      0                       # What write queue length does an incoming req see
system.mem_ctrls.wrQLenPdf::40                      0                       # What write queue length does an incoming req see
system.mem_ctrls.wrQLenPdf::41                      0                       # What write queue length does an incoming req see
system.mem_ctrls.wrQLenPdf::42                      0                       # What write queue length does an incoming req see
system.mem_ctrls.wrQLenPdf::43                      0                       # What write queue length does an incoming req see
system.mem_ctrls.wrQLenPdf::44                      0                       # What write queue length does an incoming req see
system.mem_ctrls.wrQLenPdf::45                      0                       # What write queue length does an incoming req see
system.mem_ctrls.wrQLenPdf::46                      0                       # What write queue length does an incoming req see
system.mem_ctrls.wrQLenPdf::47                      0                       # What write queue length does an incoming req see
system.mem_ctrls.wrQLenPdf::48                      0                       # What write queue length does an incoming req see
system.mem_ctrls.wrQLenPdf::49                      0                       # What write queue length does an incoming req see
system.mem_ctrls.wrQLenPdf::50                      0                       # What write queue length does an incoming req see
system.mem_ctrls.wrQLenPdf::51                      0                       # What write queue length does an incoming req see
system.mem_ctrls.wrQLenPdf::52                      0                       # What write queue length does an incoming req see
system.mem_ctrls.wrQLenPdf::53                      0                       # What write queue length does an incoming req see
system.mem_ctrls.wrQLenPdf::54                      0                       # What write queue length does an incoming req see
system.mem_ctrls.wrQLenPdf::55                      0                       # What write queue length does an incoming req see
system.mem_ctrls.wrQLenPdf::56                      0                       # What write queue length does an incoming req see
system.mem_ctrls.wrQLenPdf::57                      0                       # What write queue length does an incoming req see
system.mem_ctrls.wrQLenPdf::58                      0                       # What write queue length does an incoming req see
system.mem_ctrls.wrQLenPdf::59                      0                       # What write queue length does an incoming req see
system.mem_ctrls.wrQLenPdf::60                      0                       # What write queue length does an incoming req see
system.mem_ctrls.wrQLenPdf::61                      0                       # What write queue length does an incoming req see
system.mem_ctrls.wrQLenPdf::62                      0                       # What write queue length does an incoming req see
system.mem_ctrls.wrQLenPdf::63                      0                       # What write queue length does an incoming req see
system.mem_ctrls.bytesReadWrQ                       0                       # Total number of bytes read from write queue
system.mem_ctrls.bytesReadSys                  229632                       # Total read bytes from the system interface side
system.mem_ctrls.bytesWrittenSys                    0                       # Total written bytes from the system interface side
system.mem_ctrls.avgRdBWSys                    418.46                       # Average system read bandwidth in MiByte/s
system.mem_ctrls.avgWrBWSys                      0.00                       # Average system write bandwidth in MiByte/s
system.mem_ctrls.totGap                     548675500                       # Total gap between requests
system.mem_ctrls.avgGap                     152919.59                       # Average gap between requests
system.mem_ctrls.requestorReadBytes::.cpu.inst        66176                       # Per-requestor bytes read from memory
system.mem_ctrls.requestorReadBytes::.cpu.data       163456                       # Per-requestor bytes read from memory
system.mem_ctrls.requestorReadRate::.cpu.inst 120594187.329555645585                       # Per-requestor bytes read from memory rate (Bytes/sec)
system.mem_ctrls.requestorReadRate::.cpu.data 297869975.280159711838                       # Per-requestor bytes read from memory rate (Bytes/sec)
system.mem_ctrls.requestorReadAccesses::.cpu.inst         1034                       # Per-requestor read serviced memory accesses
system.mem_ctrls.requestorReadAccesses::.cpu.data         2554                       # Per-requestor read serviced memory accesses
system.mem_ctrls.requestorReadTotalLat::.cpu.inst     25866000                       # Per-requestor read total memory access latency
system.mem_ctrls.requestorReadTotalLat::.cpu.data     65261500                       # Per-requestor read total memory access latency
system.mem_ctrls.requestorReadAvgLat::.cpu.inst     25015.47                       # Per-requestor read average memory access latency
system.mem_ctrls.requestorReadAvgLat::.cpu.data     25552.66                       # Per-requestor read average memory access latency
system.mem_ctrls.dram.bytes_read::.cpu.inst        66176                       # Number of bytes read from this memory
system.mem_ctrls.dram.bytes_read::.cpu.data       163456                       # Number of bytes read from this memory
system.mem_ctrls.dram.bytes_read::total        229632                       # Number of bytes read from this memory
system.mem_ctrls.dram.bytes_inst_read::.cpu.inst        66176                       # Number of instructions bytes read from this memory
system.mem_ctrls.dram.bytes_inst_read::total        66176                       # Number of instructions bytes read from this memory
system.mem_ctrls.dram.num_reads::.cpu.inst         1034                       # Number of read requests responded to by this memory
system.mem_ctrls.dram.num_reads::.cpu.data         2554                       # Number of read requests responded to by this memory
system.mem_ctrls.dram.num_reads::total           3588                       # Number of read requests responded to by this memory
system.mem_ctrls.dram.bw_read::.cpu.inst    120594187                       # Total read bandwidth from this memory (bytes/s)
system.mem_ctrls.dram.bw_read::.cpu.data    297869975                       # Total read bandwidth from this memory (bytes/s)
system.mem_ctrls.dram.bw_read::total        418464163                       # Total read bandwidth from this memory (bytes/s)
system.mem_ctrls.dram.bw_inst_read::.cpu.inst    120594187                       # Instruction read bandwidth from this memory (bytes/s)
system.mem_ctrls.dram.bw_inst_read::total    120594187                       # Instruction read bandwidth from this memory (bytes/s)
system.mem_ctrls.dram.bw_total::.cpu.inst    120594187                       # Total bandwidth to/from this memory (bytes/s)
system.mem_ctrls.dram.bw_total::.cpu.data    297869975                       # Total bandwidth to/from this memory (bytes/s)
system.mem_ctrls.dram.bw_total::total       418464163                       # Total bandwidth to/from this memory (bytes/s)
system.mem_ctrls.dram.readBursts                 3588                       # Number of DRAM read bursts
system.mem_ctrls.dram.writeBursts                   0                       # Number of DRAM write bursts
system.mem_ctrls.dram.perBankRdBursts::0          322                       # Per bank write bursts
system.mem_ctrls.dram.perBankRdBursts::1          277                       # Per bank write bursts
system.mem_ctrls.dram.perBankRdBursts::2          287                       # Per bank write bursts
system.mem_ctrls.dram.perBankRdBursts::3          222                       # Per bank write bursts
system.mem_ctrls.dram.perBankRdBursts::4          257                       # Per bank write bursts
system.mem_ctrls.dram.perBankRdBursts::5          180                       # Per bank write bursts
system.mem_ctrls.dram.perBankRdBursts::6          226                       # Per bank write bursts
system.mem_ctrls.dram.perBankRdBursts::7          136                       # Per bank write bursts
system.mem_ctrls.dram.perBankRdBursts::8          215                       # Per bank write bursts
system.mem_ctrls.dram.perBankRdBursts::9          236                       # Per bank write bursts
system.mem_ctrls.dram.perBankRdBursts::10          273                       # Per bank write bursts
system.mem_ctrls.dram.perBankRdBursts::11          221                       # Per bank write bursts
system.mem_ctrls.dram.perBankRdBursts::12          126                       # Per bank write bursts
system.mem_ctrls.dram.perBankRdBursts::13          152                       # Per bank write bursts
system.mem_ctrls.dram.perBankRdBursts::14          276                       # Per bank write bursts
system.mem_ctrls.dram.perBankRdBursts::15          182                       # Per bank write bursts
system.mem_ctrls.dram.perBankWrBursts::0            0                       # Per bank write bursts
system.mem_ctrls.dram.perBankWrBursts::1            0                       # Per bank write bursts
system.mem_ctrls.dram.perBankWrBursts::2            0                       # Per bank write bursts
system.mem_ctrls.dram.perBankWrBursts::3            0                       # Per bank write bursts
system.mem_ctrls.dram.perBankWrBursts::4            0                       # Per bank write bursts
system.mem_ctrls.dram.perBankWrBursts::5            0                       # Per bank write bursts
system.mem_ctrls.dram.perBankWrBursts::6            0                       # Per bank write bursts
system.mem_ctrls.dram.perBankWrBursts::7            0                       # Per bank write bursts
system.mem_ctrls.dram.perBankWrBursts::8            0                       # Per bank write bursts
system.mem_ctrls.dram.perBankWrBursts::9            0                       # Per bank write bursts
system.mem_ctrls.dram.perBankWrBursts::10            0                       # Per bank write bursts
system.mem_ctrls.dram.perBankWrBursts::11            0                       # Per bank write bursts
system.mem_ctrls.dram.perBankWrBursts::12            0                       # Per bank write bursts
system.mem_ctrls.dram.perBankWrBursts::13            0                       # Per bank write bursts
system.mem_ctrls.dram.perBankWrBursts::14            0                       # Per bank write bursts
system.mem_ctrls.dram.perBankWrBursts::15            0                       # Per bank write bursts
system.mem_ctrls.dram.totQLat                23852500                       # Total ticks spent queuing
system.mem_ctrls.dram.totBusLat              17940000                       # Total ticks spent in databus transfers
system.mem_ctrls.dram.totMemAccLat           91127500                       # Total ticks spent from burst creation until serviced by the DRAM
system.mem_ctrls.dram.avgQLat                 6647.85                       # Average queueing delay per DRAM burst
system.mem_ctrls.dram.avgBusLat               5000.00                       # Average bus latency per DRAM burst
system.mem_ctrls.dram.avgMemAccLat           25397.85                       # Average memory access latency per DRAM burst
system.mem_ctrls.dram.readRowHits                2892                       # Number of row buffer hits during reads
system.mem_ctrls.dram.writeRowHits                  0                       # Number of row buffer hits during writes
system.mem_ctrls.dram.readRowHitRate            80.60                       # Row buffer hit rate for reads
system.mem_ctrls.dram.writeRowHitRate             nan                       # Row buffer hit rate for writes
system.mem_ctrls.dram.bytesPerActivate::samples          689                       # Bytes accessed per row activation
system.mem_ctrls.dram.bytesPerActivate::mean   331.239478                       # Bytes accessed per row activation
system.mem_ctrls.dram.bytesPerActivate::gmean   198.792721                       # Bytes accessed per row activation
system.mem_ctrls.dram.bytesPerActivate::stdev   337.509348                       # Bytes accessed per row activation
system.mem_ctrls.dram.bytesPerActivate::0-127          223     32.37%     32.37% # Bytes accessed per row activation
system.mem_ctrls.dram.bytesPerActivate::128-255          177     25.69%     58.06% # Bytes accessed per row activation
system.mem_ctrls.dram.bytesPerActivate::256-383           77     11.18%     69.23% # Bytes accessed per row activation
system.mem_ctrls.dram.bytesPerActivate::384-511           44      6.39%     75.62% # Bytes accessed per row activation
system.mem_ctrls.dram.bytesPerActivate::512-639           25      3.63%     79.25% # Bytes accessed per row activation
system.mem_ctrls.dram.bytesPerActivate::640-767           23      3.34%     82.58% # Bytes accessed per row activation
system.mem_ctrls.dram.bytesPerActivate::768-895           16      2.32%     84.91% # Bytes accessed per row activation
system.mem_ctrls.dram.bytesPerActivate::896-1023            8      1.16%     86.07% # Bytes accessed per row activation
system.mem_ctrls.dram.bytesPerActivate::1024-1151           96     13.93%    100.00% # Bytes accessed per row activation
system.mem_ctrls.dram.bytesPerActivate::total          689                       # Bytes accessed per row activation
system.mem_ctrls.dram.bytesRead                229632                       # Total number of bytes read from DRAM
system.mem_ctrls.dram.bytesWritten                  0                       # Total number of bytes written to DRAM
system.mem_ctrls.dram.avgRdBW              418.464163                       # Average DRAM read bandwidth in MiBytes/s
system.mem_ctrls.dram.avgWrBW                       0                       # Average DRAM write bandwidth in MiBytes/s
system.mem_ctrls.dram.peakBW                 12800.00                       # Theoretical peak bandwidth in MiByte/s
system.mem_ctrls.dram.busUtil                    3.27                       # Data bus utilization in percentage
system.mem_ctrls.dram.busUtilRead                3.27                       # Data bus utilization in percentage for reads
system.mem_ctrls.dram.busUtilWrite               0.00                       # Data bus utilization in percentage for writes
system.mem_ctrls.dram.pageHitRate               80.60                       # Row buffer hit rate, read and write combined
system.mem_ctrls.dram.power_state.pwrStateResidencyTicks::UNDEFINED    548749500                       # Cumulative time (in ticks) in various power states
system.mem_ctrls.dram.rank0.actEnergy         2327640                       # Energy for activate commands per rank (pJ)
system.mem_ctrls.dram.rank0.preEnergy         1221990                       # Energy for precharge commands per rank (pJ)
system.mem_ctrls.dram.rank0.readEnergy       13615980                       # Energy for read commands per rank (pJ)
system.mem_ctrls.dram.rank0.writeEnergy             0                       # Energy for write commands per rank (pJ)
system.mem_ctrls.dram.rank0.refreshEnergy 43024800.000000                       # Energy for refresh commands per rank (pJ)
system.mem_ctrls.dram.rank0.actBackEnergy    204601500                       # Energy for active background per rank (pJ)
system.mem_ctrls.dram.rank0.preBackEnergy     38424000                       # Energy for precharge background per rank (pJ)
system.mem_ctrls.dram.rank0.actPowerDownEnergy            0                       # Energy for active power-down per rank (pJ)
system.mem_ctrls.dram.rank0.prePowerDownEnergy            0                       # Energy for precharge power-down per rank (pJ)
system.mem_ctrls.dram.rank0.selfRefreshEnergy            0                       # Energy for self refresh per rank (pJ)
system.mem_ctrls.dram.rank0.totalEnergy     303215910                       # Total energy per rank (pJ)
system.mem_ctrls.dram.rank0.averagePower   552.557970                       # Core power per rank (mW)
system.mem_ctrls.dram.rank0.totalIdleTime            0                       # Total Idle time Per DRAM Rank
system.mem_ctrls.dram.rank0.pwrStateTime::IDLE     97868750                       # Time in different power states
system.mem_ctrls.dram.rank0.pwrStateTime::REF     18200000                       # Time in different power states
system.mem_ctrls.dram.rank0.pwrStateTime::SREF            0                       # Time in different power states
system.mem_ctrls.dram.rank0.pwrStateTime::PRE_PDN            0                       # Time in different power states
system.mem_ctrls.dram.rank0.pwrStateTime::ACT    432680750                       # Time in different power states
system.mem_ctrls.dram.rank0.pwrStateTime::ACT_PDN            0                       # Time in different power states
system.mem_ctrls.dram.rank1.actEnergy         2641800                       # Energy for activate commands per rank (pJ)
system.mem_ctrls.dram.rank1.preEnergy         1392765                       # Energy for precharge commands per rank (pJ)
system.mem_ctrls.dram.rank1.readEnergy       12002340                       # Energy for read commands per rank (pJ)
system.mem_ctrls.dram.rank1.writeEnergy             0                       # Energy for write commands per rank (pJ)
system.mem_ctrls.dram.rank1.refreshEnergy 43024800.000000                       # Energy for refresh commands per rank (pJ)
system.mem_ctrls.dram.rank1.actBackEnergy    217111290                       # Energy for active background per rank (pJ)
system.mem_ctrls.dram.rank1.preBackEnergy     27889440                       # Energy for precharge background per rank (pJ)
system.mem_ctrls.dram.rank1.actPowerDownEnergy            0                       # Energy for active power-down per rank (pJ)
system.mem_ctrls.dram.rank1.prePowerDownEnergy            0                       # Energy for precharge power-down per rank (pJ)
system.mem_ctrls.dram.rank1.selfRefreshEnergy            0                       # Energy for self refresh per rank (pJ)
system.mem_ctrls.dram.rank1.totalEnergy     304062435                       # Total energy per rank (pJ)
system.mem_ctrls.dram.rank1.averagePower   554.100614                       # Core power per rank (mW)
system.mem_ctrls.dram.rank1.totalIdleTime            0                       # Total Idle time Per DRAM Rank
system.mem_ctrls.dram.rank1.pwrStateTime::IDLE     70522250                       # Time in different power states
system.mem_ctrls.dram.rank1.pwrStateTime::REF     18200000                       # Time in different power states
system.mem_ctrls.dram.rank1.pwrStateTime::SREF            0                       # Time in different power states
system.mem_ctrls.dram.rank1.pwrStateTime::PRE_PDN            0                       # Time in different power states
system.mem_ctrls.dram.rank1.pwrStateTime::ACT    460027250                       # Time in different power states
system.mem_ctrls.dram.rank1.pwrStateTime::ACT_PDN            0                       # Time in different power states
system.mem_ctrls.power_state.pwrStateResidencyTicks::UNDEFINED    548749500                       # Cumulative time (in ticks) in various power states
system.membus.trans_dist::ReadResp               3029                       # Transaction distribution
system.membus.trans_dist::ReadExReq               559                       # Transaction distribution
system.membus.trans_dist::ReadExResp              559                       # Transaction distribution
system.membus.trans_dist::ReadSharedReq          3029                       # Transaction distribution
system.membus.pkt_count_system.l2.mem_side_port::system.mem_ctrls.port         7176                       # Packet count per connected requestor and responder (bytes)
system.membus.pkt_count_system.l2.mem_side_port::total         7176                       # Packet count per connected requestor and responder (bytes)
system.membus.pkt_count::total                   7176                       # Packet count per connected requestor and responder (bytes)
system.membus.pkt_size_system.l2.mem_side_port::system.mem_ctrls.port       229632                       # Cumulative packet size per connected requestor and responder (bytes)
system.membus.pkt_size_system.l2.mem_side_port::total       229632                       # Cumulative packet size per connected requestor and responder (bytes)
system.membus.pkt_size::total                  229632                       # Cumulative packet size per connected requestor and responder (bytes)
system.membus.snoops                                0                       # Total snoops (count)
system.membus.snoopTraffic                          0                       # Total snoop traffic (bytes)
system.membus.snoop_fanout::samples              3588                       # Request fanout histogram
system.membus.snoop_fanout::mean                    0                       # Request fanout histogram
system.membus.snoop_fanout::stdev                   0                       # Request fanout histogram
system.membus.snoop_fanout::underflows              0      0.00%      0.00% # Request fanout histogram
system.membus.snoop_fanout::0                    3588    100.00%    100.00% # Request fanout histogram
system.membus.snoop_fanout::1                       0      0.00%    100.00% # Request fanout histogram
system.membus.snoop_fanout::overflows               0      0.00%    100.00% # Request fanout histogram
system.membus.snoop_fanout::min_value               0                       # Request fanout histogram
system.membus.snoop_fanout::max_value               0                       # Request fanout histogram
system.membus.snoop_fanout::total                3588                       # Request fanout histogram
system.membus.power_state.pwrStateResidencyTicks::UNDEFINED    548749500                       # Cumulative time (in ticks) in various power states
system.membus.reqLayer2.occupancy             3588500                       # Layer occupancy (ticks)
system.membus.reqLayer2.utilization               0.7                       # Layer utilization (%)
system.membus.respLayer1.occupancy           19041500                       # Layer occupancy (ticks)
system.membus.respLayer1.utilization              3.5                       # Layer utilization (%)
system.tol2bus.trans_dist::ReadResp              3032                       # Transaction distribution
system.tol2bus.trans_dist::WritebackDirty           13                       # Transaction distribution
system.tol2bus.trans_dist::WritebackClean           16                       # Transaction distribution
system.tol2bus.trans_dist::CleanEvict              23                       # Transaction distribution
system.tol2bus.trans_dist::ReadExReq              559                       # Transaction distribution
system.tol2bus.trans_dist::ReadExResp             559                       # Transaction distribution
system.tol2bus.trans_dist::ReadCleanReq          1034                       # Transaction distribution
system.tol2bus.trans_dist::ReadSharedReq         1998                       # Transaction distribution
system.tol2bus.pkt_count_system.cpu.icache.mem_side_port::system.l2.cpu_side_port         2084                       # Packet count per connected requestor and responder (bytes)
system.tol2bus.pkt_count_system.cpu.dcache.mem_side_port::system.l2.cpu_side_port         5150                       # Packet count per connected requestor and responder (bytes)
system.tol2bus.pkt_count::total                  7234                       # Packet count per connected requestor and responder (bytes)
system.tol2bus.pkt_size_system.cpu.icache.mem_side_port::system.l2.cpu_side_port        67200                       # Cumulative packet size per connected requestor and responder (bytes)
system.tol2bus.pkt_size_system.cpu.dcache.mem_side_port::system.l2.cpu_side_port       164480                       # Cumulative packet size per connected requestor and responder (bytes)
system.tol2bus.pkt_size::total                 231680                       # Cumulative packet size per connected requestor and responder (bytes)
system.tol2bus.snoops                               0                       # Total snoops (count)
system.tol2bus.snoopTraffic                         0                       # Total snoop traffic (bytes)
system.tol2bus.snoop_fanout::samples             3591                       # Request fanout histogram
system.tol2bus.snoop_fanout::mean                   0                       # Request fanout histogram
system.tol2bus.snoop_fanout::stdev                  0                       # Request fanout histogram
system.tol2bus.snoop_fanout::underflows             0      0.00%      0.00% # Request fanout histogram
system.tol2bus.snoop_fanout::0                   3591    100.00%    100.00% # Request fanout histogram
system.tol2bus.snoop_fanout::1                      0      0.00%    100.00% # Request fanout histogram
system.tol2bus.snoop_fanout::2                      0      0.00%    100.00% # Request fanout histogram
system.tol2bus.snoop_fanout::3                      0      0.00%    100.00% # Request fanout histogram
system.tol2bus.snoop_fanout::4                      0      0.00%    100.00% # Request fanout histogram
system.tol2bus.snoop_fanout::overflows              0      0.00%    100.00% # Request fanout histogram
system.tol2bus.snoop_fanout::min_value              0                       # Request fanout histogram
system.tol2bus.snoop_fanout::max_value              0                       # Request fanout histogram
system.tol2bus.snoop_fanout::total               3591                       # Request fanout histogram
system.tol2bus.power_state.pwrStateResidencyTicks::UNDEFINED    548749500                       # Cumulative time (in ticks) in various power states
system.tol2bus.reqLayer0.occupancy            1850500                       # Layer occupancy (ticks)
system.tol2bus.reqLayer0.utilization              0.3                       # Layer utilization (%)
system.tol2bus.respLayer0.occupancy           1551000                       # Layer occupancy (ticks)
system.tol2bus.respLayer0.utilization             0.3                       # Layer utilization (%)
system.tol2bus.respLayer1.occupancy           3835500                       # Layer occupancy (ticks)
system.tol2bus.respLayer1.utilization             0.7                       # Layer utilization (%)
system.voltage_domain.voltage                       1                       # Voltage in Volts

---------- End Simulation Statistics   ----------
