
---------- Begin Simulation Statistics ----------
final_tick                                30418937500                       # Number of ticks from beginning of simulation (restored from checkpoints and never reset)
host_inst_rate                                 500243                       # Simulator instruction rate (inst/s)
host_mem_usage                                 670428                       # Number of bytes of host memory used
host_op_rate                                   657158                       # Simulator op (including micro ops) rate (op/s)
host_seconds                                    33.80                       # Real time elapsed on the host
host_tick_rate                              899882741                       # Simulator tick rate (ticks/s)
sim_freq                                 1000000000000                       # Frequency of simulated ticks
sim_insts                                    16909666                       # Number of instructions simulated
sim_ops                                      22214032                       # Number of ops (including micro ops) simulated
sim_seconds                                  0.030419                       # Number of seconds simulated
sim_ticks                                 30418937500                       # Number of ticks simulated
system.cpu.Branches                            977704                       # Number of branches fetched
system.cpu.committedInsts                    16909666                       # Number of instructions committed
system.cpu.committedOps                      22214032                       # Number of ops (including micro ops) committed
system.cpu.idle_fraction                     0.000000                       # Percentage of idle cycles
system.cpu.not_idle_fraction                 1.000000                       # Percentage of non-idle cycles
system.cpu.numCycles                         60837875                       # number of cpu cycles simulated
system.cpu.numWorkItemsCompleted                    0                       # number of work items this cpu completed
system.cpu.numWorkItemsStarted                      0                       # number of work items this cpu started
system.cpu.num_busy_cycles               60837874.998000                       # Number of busy cycles
system.cpu.num_cc_register_reads              6006392                       # number of times the CC registers were read
system.cpu.num_cc_register_writes            10099941                       # number of times the CC registers were written
system.cpu.num_conditional_control_insts       769946                       # number of instructions that are conditional controls
system.cpu.num_fp_alu_accesses                 210082                       # Number of float alu accesses
system.cpu.num_fp_insts                        210082                       # number of float instructions
system.cpu.num_fp_register_reads               351317                       # number of times the floating registers were read
system.cpu.num_fp_register_writes              183914                       # number of times the floating registers were written
system.cpu.num_func_calls                      108670                       # number of times a function call or return occured
system.cpu.num_idle_cycles                   0.002000                       # Number of idle cycles
system.cpu.num_int_alu_accesses              21955178                       # Number of integer alu accesses
system.cpu.num_int_insts                     21955178                       # number of integer instructions
system.cpu.num_int_register_reads            48983310                       # number of times the integer registers were read
system.cpu.num_int_register_writes           20200117                       # number of times the integer registers were written
system.cpu.num_load_insts                     6648703                       # Number of load instructions
system.cpu.num_mem_refs                       7731387                       # number of memory refs
system.cpu.num_store_insts                    1082684                       # Number of store instructions
system.cpu.num_vec_alu_accesses                     0                       # Number of vector alu accesses
system.cpu.num_vec_insts                            0                       # number of vector instructions
system.cpu.num_vec_register_reads                   0                       # number of times the vector registers were read
system.cpu.num_vec_register_writes                  0                       # number of times the vector registers were written
system.cpu.op_class::No_OpClass                108858      0.49%      0.49% # Class of executed instruction
system.cpu.op_class::IntAlu                  13931327     62.70%     63.19% # Class of executed instruction
system.cpu.op_class::IntMult                   266256      1.20%     64.39% # Class of executed instruction
system.cpu.op_class::IntDiv                     29966      0.13%     64.53% # Class of executed instruction
system.cpu.op_class::FloatAdd                    8559      0.04%     64.56% # Class of executed instruction
system.cpu.op_class::FloatCmp                       0      0.00%     64.56% # Class of executed instruction
system.cpu.op_class::FloatCvt                      32      0.00%     64.56% # Class of executed instruction
system.cpu.op_class::FloatMult                      0      0.00%     64.56% # Class of executed instruction
system.cpu.op_class::FloatMultAcc                   0      0.00%     64.56% # Class of executed instruction
system.cpu.op_class::FloatDiv                       0      0.00%     64.56% # Class of executed instruction
system.cpu.op_class::FloatMisc                      0      0.00%     64.56% # Class of executed instruction
system.cpu.op_class::FloatSqrt                      0      0.00%     64.56% # Class of executed instruction
system.cpu.op_class::SimdAdd                      318      0.00%     64.57% # Class of executed instruction
system.cpu.op_class::SimdAddAcc                     0      0.00%     64.57% # Class of executed instruction
system.cpu.op_class::SimdAlu                    33425      0.15%     64.72% # Class of executed instruction
system.cpu.op_class::SimdCmp                        6      0.00%     64.72% # Class of executed instruction
system.cpu.op_class::SimdCvt                    33472      0.15%     64.87% # Class of executed instruction
system.cpu.op_class::SimdMisc                   74541      0.34%     65.20% # Class of executed instruction
system.cpu.op_class::SimdMult                       0      0.00%     65.20% # Class of executed instruction
system.cpu.op_class::SimdMultAcc                    0      0.00%     65.20% # Class of executed instruction
system.cpu.op_class::SimdShift                     85      0.00%     65.20% # Class of executed instruction
system.cpu.op_class::SimdShiftAcc                   0      0.00%     65.20% # Class of executed instruction
system.cpu.op_class::SimdDiv                        0      0.00%     65.20% # Class of executed instruction
system.cpu.op_class::SimdSqrt                       0      0.00%     65.20% # Class of executed instruction
system.cpu.op_class::SimdFloatAdd                   0      0.00%     65.20% # Class of executed instruction
system.cpu.op_class::SimdFloatAlu                   0      0.00%     65.20% # Class of executed instruction
system.cpu.op_class::SimdFloatCmp                   0      0.00%     65.20% # Class of executed instruction
system.cpu.op_class::SimdFloatCvt                   0      0.00%     65.20% # Class of executed instruction
system.cpu.op_class::SimdFloatDiv                   0      0.00%     65.20% # Class of executed instruction
system.cpu.op_class::SimdFloatMisc                  0      0.00%     65.20% # Class of executed instruction
system.cpu.op_class::SimdFloatMult                  0      0.00%     65.20% # Class of executed instruction
system.cpu.op_class::SimdFloatMultAcc               0      0.00%     65.20% # Class of executed instruction
system.cpu.op_class::SimdFloatSqrt                  0      0.00%     65.20% # Class of executed instruction
system.cpu.op_class::SimdReduceAdd                  0      0.00%     65.20% # Class of executed instruction
system.cpu.op_class::SimdReduceAlu                  0      0.00%     65.20% # Class of executed instruction
system.cpu.op_class::SimdReduceCmp                  0      0.00%     65.20% # Class of executed instruction
system.cpu.op_class::SimdFloatReduceAdd             0      0.00%     65.20% # Class of executed instruction
system.cpu.op_class::SimdFloatReduceCmp             0      0.00%     65.20% # Class of executed instruction
system.cpu.op_class::SimdAes                        0      0.00%     65.20% # Class of executed instruction
system.cpu.op_class::SimdAesMix                     0      0.00%     65.20% # Class of executed instruction
system.cpu.op_class::SimdSha1Hash                   0      0.00%     65.20% # Class of executed instruction
system.cpu.op_class::SimdSha1Hash2                  0      0.00%     65.20% # Class of executed instruction
system.cpu.op_class::SimdSha256Hash                 0      0.00%     65.20% # Class of executed instruction
system.cpu.op_class::SimdSha256Hash2                0      0.00%     65.20% # Class of executed instruction
system.cpu.op_class::SimdShaSigma2                  0      0.00%     65.20% # Class of executed instruction
system.cpu.op_class::SimdShaSigma3                  0      0.00%     65.20% # Class of executed instruction
system.cpu.op_class::SimdPredAlu                    0      0.00%     65.20% # Class of executed instruction
system.cpu.op_class::MemRead                  6623285     29.81%     95.01% # Class of executed instruction
system.cpu.op_class::MemWrite                 1073320      4.83%     99.84% # Class of executed instruction
system.cpu.op_class::FloatMemRead               25418      0.11%     99.96% # Class of executed instruction
system.cpu.op_class::FloatMemWrite               9364      0.04%    100.00% # Class of executed instruction
system.cpu.op_class::IprAccess                      0      0.00%    100.00% # Class of executed instruction
system.cpu.op_class::InstPrefetch                   0      0.00%    100.00% # Class of executed instruction
system.cpu.op_class::total                   22218232                       # Class of executed instruction
system.cpu.workload.numSyscalls                  4131                       # Number of system calls
system.membus.snoop_filter.hit_multi_requests            0                       # Number of requests hitting in the snoop filter with multiple (>1) holders of the requested data.
system.membus.snoop_filter.hit_multi_snoops            0                       # Number of snoops hitting in the snoop filter with multiple (>1) holders of the requested data.
system.membus.snoop_filter.hit_single_requests            0                       # Number of requests hitting in the snoop filter with a single holder of the requested data.
system.membus.snoop_filter.hit_single_snoops            0                       # Number of snoops hitting in the snoop filter with a single holder of the requested data.
system.membus.snoop_filter.tot_requests          4423                       # Total number of requests made to the snoop filter.
system.membus.snoop_filter.tot_snoops               0                       # Total number of snoops made to the snoop filter.
system.tol2bus.snoop_filter.hit_multi_requests            0                       # Number of requests hitting in the snoop filter with multiple (>1) holders of the requested data.
system.tol2bus.snoop_filter.hit_multi_snoops            0                       # Number of snoops hitting in the snoop filter with multiple (>1) holders of the requested data.
system.tol2bus.snoop_filter.hit_single_requests          266                       # Number of requests hitting in the snoop filter with a single holder of the requested data.
system.tol2bus.snoop_filter.hit_single_snoops            0                       # Number of snoops hitting in the snoop filter with a single holder of the requested data.
system.tol2bus.snoop_filter.tot_requests         4697                       # Total number of requests made to the snoop filter.
system.tol2bus.snoop_filter.tot_snoops              0                       # Total number of snoops made to the snoop filter.
system.clk_domain.clock                          1000                       # Clock period in ticks
system.cpu.dcache.demand_hits::.cpu.data      7727923                       # number of demand (read+write) hits
system.cpu.dcache.demand_hits::total          7727923                       # number of demand (read+write) hits
system.cpu.dcache.overall_hits::.cpu.data      7727923                       # number of overall hits
system.cpu.dcache.overall_hits::total         7727923                       # number of overall hits
system.cpu.dcache.demand_misses::.cpu.data         3398                       # number of demand (read+write) misses
system.cpu.dcache.demand_misses::total           3398                       # number of demand (read+write) misses
system.cpu.dcache.overall_misses::.cpu.data         3398                       # number of overall misses
system.cpu.dcache.overall_misses::total          3398                       # number of overall misses
system.cpu.dcache.demand_miss_latency::.cpu.data    267805000                       # number of demand (read+write) miss cycles
system.cpu.dcache.demand_miss_latency::total    267805000                       # number of demand (read+write) miss cycles
system.cpu.dcache.overall_miss_latency::.cpu.data    267805000                       # number of overall miss cycles
system.cpu.dcache.overall_miss_latency::total    267805000                       # number of overall miss cycles
system.cpu.dcache.demand_accesses::.cpu.data      7731321                       # number of demand (read+write) accesses
system.cpu.dcache.demand_accesses::total      7731321                       # number of demand (read+write) accesses
system.cpu.dcache.overall_accesses::.cpu.data      7731321                       # number of overall (read+write) accesses
system.cpu.dcache.overall_accesses::total      7731321                       # number of overall (read+write) accesses
system.cpu.dcache.demand_miss_rate::.cpu.data     0.000440                       # miss rate for demand accesses
system.cpu.dcache.demand_miss_rate::total     0.000440                       # miss rate for demand accesses
system.cpu.dcache.overall_miss_rate::.cpu.data     0.000440                       # miss rate for overall accesses
system.cpu.dcache.overall_miss_rate::total     0.000440                       # miss rate for overall accesses
system.cpu.dcache.demand_avg_miss_latency::.cpu.data 78812.536786                       # average overall miss latency
system.cpu.dcache.demand_avg_miss_latency::total 78812.536786                       # average overall miss latency
system.cpu.dcache.overall_avg_miss_latency::.cpu.data 78812.536786                       # average overall miss latency
system.cpu.dcache.overall_avg_miss_latency::total 78812.536786                       # average overall miss latency
system.cpu.dcache.blocked_cycles::no_mshrs            0                       # number of cycles access was blocked
system.cpu.dcache.blocked_cycles::no_targets            0                       # number of cycles access was blocked
system.cpu.dcache.blocked::no_mshrs                 0                       # number of cycles access was blocked
system.cpu.dcache.blocked::no_targets               0                       # number of cycles access was blocked
system.cpu.dcache.avg_blocked_cycles::no_mshrs          nan                       # average number of cycles each access was blocked
system.cpu.dcache.avg_blocked_cycles::no_targets          nan                       # average number of cycles each access was blocked
system.cpu.dcache.writebacks::.writebacks          108                       # number of writebacks
system.cpu.dcache.writebacks::total               108                       # number of writebacks
system.cpu.dcache.demand_mshr_misses::.cpu.data         3398                       # number of demand (read+write) MSHR misses
system.cpu.dcache.demand_mshr_misses::total         3398                       # number of demand (read+write) MSHR misses
system.cpu.dcache.overall_mshr_misses::.cpu.data         3398                       # number of overall MSHR misses
system.cpu.dcache.overall_mshr_misses::total         3398                       # number of overall MSHR misses
system.cpu.dcache.demand_mshr_miss_latency::.cpu.data    264407000                       # number of demand (read+write) MSHR miss cycles
system.cpu.dcache.demand_mshr_miss_latency::total    264407000                       # number of demand (read+write) MSHR miss cycles
system.cpu.dcache.overall_mshr_miss_latency::.cpu.data    264407000                       # number of overall MSHR miss cycles
system.cpu.dcache.overall_mshr_miss_latency::total    264407000                       # number of overall MSHR miss cycles
system.cpu.dcache.demand_mshr_miss_rate::.cpu.data     0.000440                       # mshr miss rate for demand accesses
system.cpu.dcache.demand_mshr_miss_rate::total     0.000440                       # mshr miss rate for demand accesses
system.cpu.dcache.overall_mshr_miss_rate::.cpu.data     0.000440                       # mshr miss rate for overall accesses
system.cpu.dcache.overall_mshr_miss_rate::total     0.000440                       # mshr miss rate for overall accesses
system.cpu.dcache.demand_avg_mshr_miss_latency::.cpu.data 77812.536786                       # average overall mshr miss latency
system.cpu.dcache.demand_avg_mshr_miss_latency::total 77812.536786                       # average overall mshr miss latency
system.cpu.dcache.overall_avg_mshr_miss_latency::.cpu.data 77812.536786                       # average overall mshr miss latency
system.cpu.dcache.overall_avg_mshr_miss_latency::total 77812.536786                       # average overall mshr miss latency
system.cpu.dcache.replacements                    261                       # number of replacements
system.cpu.dcache.ReadReq_hits::.cpu.data      6646660                       # number of ReadReq hits
system.cpu.dcache.ReadReq_hits::total         6646660                       # number of ReadReq hits
system.cpu.dcache.ReadReq_misses::.cpu.data         2003                       # number of ReadReq misses
system.cpu.dcache.ReadReq_misses::total          2003                       # number of ReadReq misses
system.cpu.dcache.ReadReq_miss_latency::.cpu.data    158158000                       # number of ReadReq miss cycles
system.cpu.dcache.ReadReq_miss_latency::total    158158000                       # number of ReadReq miss cycles
system.cpu.dcache.ReadReq_accesses::.cpu.data      6648663                       # number of ReadReq accesses(hits+misses)
system.cpu.dcache.ReadReq_accesses::total      6648663                       # number of ReadReq accesses(hits+misses)
system.cpu.dcache.ReadReq_miss_rate::.cpu.data     0.000301                       # miss rate for ReadReq accesses
system.cpu.dcache.ReadReq_miss_rate::total     0.000301                       # miss rate for ReadReq accesses
system.cpu.dcache.ReadReq_avg_miss_latency::.cpu.data 78960.559161                       # average ReadReq miss latency
system.cpu.dcache.ReadReq_avg_miss_latency::total 78960.559161                       # average ReadReq miss latency
system.cpu.dcache.ReadReq_mshr_misses::.cpu.data         2003                       # number of ReadReq MSHR misses
system.cpu.dcache.ReadReq_mshr_misses::total         2003                       # number of ReadReq MSHR misses
system.cpu.dcache.ReadReq_mshr_miss_latency::.cpu.data    156155000                       # number of ReadReq MSHR miss cycles
system.cpu.dcache.ReadReq_mshr_miss_latency::total    156155000                       # number of ReadReq MSHR miss cycles
system.cpu.dcache.ReadReq_mshr_miss_rate::.cpu.data     0.000301                       # mshr miss rate for ReadReq accesses
system.cpu.dcache.ReadReq_mshr_miss_rate::total     0.000301                       # mshr miss rate for ReadReq accesses
system.cpu.dcache.ReadReq_avg_mshr_miss_latency::.cpu.data 77960.559161                       # average ReadReq mshr miss latency
system.cpu.dcache.ReadReq_avg_mshr_miss_latency::total 77960.559161                       # average ReadReq mshr miss latency
system.cpu.dcache.WriteReq_hits::.cpu.data      1081263                       # number of WriteReq hits
system.cpu.dcache.WriteReq_hits::total        1081263                       # number of WriteReq hits
system.cpu.dcache.WriteReq_misses::.cpu.data         1395                       # number of WriteReq misses
system.cpu.dcache.WriteReq_misses::total         1395                       # number of WriteReq misses
system.cpu.dcache.WriteReq_miss_latency::.cpu.data    109647000                       # number of WriteReq miss cycles
system.cpu.dcache.WriteReq_miss_latency::total    109647000                       # number of WriteReq miss cycles
system.cpu.dcache.WriteReq_accesses::.cpu.data      1082658                       # number of WriteReq accesses(hits+misses)
system.cpu.dcache.WriteReq_accesses::total      1082658                       # number of WriteReq accesses(hits+misses)
system.cpu.dcache.WriteReq_miss_rate::.cpu.data     0.001288                       # miss rate for WriteReq accesses
system.cpu.dcache.WriteReq_miss_rate::total     0.001288                       # miss rate for WriteReq accesses
system.cpu.dcache.WriteReq_avg_miss_latency::.cpu.data        78600                       # average WriteReq miss latency
system.cpu.dcache.WriteReq_avg_miss_latency::total        78600                       # average WriteReq miss latency
system.cpu.dcache.WriteReq_mshr_misses::.cpu.data         1395                       # number of WriteReq MSHR misses
system.cpu.dcache.WriteReq_mshr_misses::total         1395                       # number of WriteReq MSHR misses
system.cpu.dcache.WriteReq_mshr_miss_latency::.cpu.data    108252000                       # number of WriteReq MSHR miss cycles
system.cpu.dcache.WriteReq_mshr_miss_latency::total    108252000                       # number of WriteReq MSHR miss cycles
system.cpu.dcache.WriteReq_mshr_miss_rate::.cpu.data     0.001288                       # mshr miss rate for WriteReq accesses
system.cpu.dcache.WriteReq_mshr_miss_rate::total     0.001288                       # mshr miss rate for WriteReq accesses
system.cpu.dcache.WriteReq_avg_mshr_miss_latency::.cpu.data        77600                       # average WriteReq mshr miss latency
system.cpu.dcache.WriteReq_avg_mshr_miss_latency::total        77600                       # average WriteReq mshr miss latency
system.cpu.dcache.power_state.pwrStateResidencyTicks::UNDEFINED  30418937500                       # Cumulative time (in ticks) in various power states
system.cpu.dcache.tags.tagsinuse          3099.836436                       # Cycle average of tags in use
system.cpu.dcache.tags.total_refs             7731321                       # Total number of references to valid blocks.
system.cpu.dcache.tags.sampled_refs              3398                       # Sample count of references to valid blocks.
system.cpu.dcache.tags.avg_refs           2275.256327                       # Average number of references to valid blocks.
system.cpu.dcache.tags.warmup_cycle            174500                       # Cycle when the warmup percentage was hit.
system.cpu.dcache.tags.occ_blocks::.cpu.data  3099.836436                       # Average occupied blocks per requestor
system.cpu.dcache.tags.occ_percent::.cpu.data     0.756796                       # Average percentage of cache occupancy
system.cpu.dcache.tags.occ_percent::total     0.756796                       # Average percentage of cache occupancy
system.cpu.dcache.tags.occ_task_id_blocks::1024         3137                       # Occupied blocks per task id
system.cpu.dcache.tags.age_task_id_blocks_1024::0           10                       # Occupied blocks per task id
system.cpu.dcache.tags.age_task_id_blocks_1024::4         3127                       # Occupied blocks per task id
system.cpu.dcache.tags.occ_task_id_percent::1024     0.765869                       # Percentage of cache occupancy per task id
system.cpu.dcache.tags.tag_accesses          15466040                       # Number of tag accesses
system.cpu.dcache.tags.data_accesses         15466040                       # Number of data accesses
system.cpu.dcache.tags.power_state.pwrStateResidencyTicks::UNDEFINED  30418937500                       # Cumulative time (in ticks) in various power states
system.cpu.dtb.rdAccesses                     6648706                       # TLB accesses on read requests
system.cpu.dtb.wrAccesses                     1082684                       # TLB accesses on write requests
system.cpu.dtb.rdMisses                           148                       # TLB misses on read requests
system.cpu.dtb.wrMisses                            60                       # TLB misses on write requests
system.cpu.dtb.walker.power_state.pwrStateResidencyTicks::UNDEFINED  30418937500                       # Cumulative time (in ticks) in various power states
system.cpu.dtb_walker_cache.blocked_cycles::no_mshrs            0                       # number of cycles access was blocked
system.cpu.dtb_walker_cache.blocked_cycles::no_targets            0                       # number of cycles access was blocked
system.cpu.dtb_walker_cache.blocked::no_mshrs            0                       # number of cycles access was blocked
system.cpu.dtb_walker_cache.blocked::no_targets            0                       # number of cycles access was blocked
system.cpu.dtb_walker_cache.avg_blocked_cycles::no_mshrs          nan                       # average number of cycles each access was blocked
system.cpu.dtb_walker_cache.avg_blocked_cycles::no_targets          nan                       # average number of cycles each access was blocked
system.cpu.dtb_walker_cache.replacements            0                       # number of replacements
system.cpu.dtb_walker_cache.power_state.pwrStateResidencyTicks::UNDEFINED  30418937500                       # Cumulative time (in ticks) in various power states
system.cpu.dtb_walker_cache.tags.tagsinuse            0                       # Cycle average of tags in use
system.cpu.dtb_walker_cache.tags.total_refs            0                       # Total number of references to valid blocks.
system.cpu.dtb_walker_cache.tags.sampled_refs            0                       # Sample count of references to valid blocks.
system.cpu.dtb_walker_cache.tags.avg_refs          nan                       # Average number of references to valid blocks.
system.cpu.dtb_walker_cache.tags.warmup_cycle            0                       # Cycle when the warmup percentage was hit.
system.cpu.dtb_walker_cache.tags.tag_accesses            0                       # Number of tag accesses
system.cpu.dtb_walker_cache.tags.data_accesses            0                       # Number of data accesses
system.cpu.dtb_walker_cache.tags.power_state.pwrStateResidencyTicks::UNDEFINED  30418937500                       # Cumulative time (in ticks) in various power states
system.cpu.icache.demand_hits::.cpu.inst     22342246                       # number of demand (read+write) hits
system.cpu.icache.demand_hits::total         22342246                       # number of demand (read+write) hits
system.cpu.icache.overall_hits::.cpu.inst     22342246                       # number of overall hits
system.cpu.icache.overall_hits::total        22342246                       # number of overall hits
system.cpu.icache.demand_misses::.cpu.inst         1033                       # number of demand (read+write) misses
system.cpu.icache.demand_misses::total           1033                       # number of demand (read+write) misses
system.cpu.icache.overall_misses::.cpu.inst         1033                       # number of overall misses
system.cpu.icache.overall_misses::total          1033                       # number of overall misses
system.cpu.icache.demand_miss_latency::.cpu.inst     80966500                       # number of demand (read+write) miss cycles
system.cpu.icache.demand_miss_latency::total     80966500                       # number of demand (read+write) miss cycles
system.cpu.icache.overall_miss_latency::.cpu.inst     80966500                       # number of overall miss cycles
system.cpu.icache.overall_miss_latency::total     80966500                       # number of overall miss cycles
system.cpu.icache.demand_accesses::.cpu.inst     22343279                       # number of demand (read+write) accesses
system.cpu.icache.demand_accesses::total     22343279                       # number of demand (read+write) accesses
system.cpu.icache.overall_accesses::.cpu.inst     22343279                       # number of overall (read+write) accesses
system.cpu.icache.overall_accesses::total     22343279                       # number of overall (read+write) accesses
system.cpu.icache.demand_miss_rate::.cpu.inst     0.000046                       # miss rate for demand accesses
system.cpu.icache.demand_miss_rate::total     0.000046                       # miss rate for demand accesses
system.cpu.icache.overall_miss_rate::.cpu.inst     0.000046                       # miss rate for overall accesses
system.cpu.icache.overall_miss_rate::total     0.000046                       # miss rate for overall accesses
system.cpu.icache.demand_avg_miss_latency::.cpu.inst 78379.961278                       # average overall miss latency
system.cpu.icache.demand_avg_miss_latency::total 78379.961278                       # average overall miss latency
system.cpu.icache.overall_avg_miss_latency::.cpu.inst 78379.961278                       # average overall miss latency
system.cpu.icache.overall_avg_miss_latency::total 78379.961278                       # average overall miss latency
system.cpu.icache.blocked_cycles::no_mshrs            0                       # number of cycles access was blocked
system.cpu.icache.blocked_cycles::no_targets            0                       # number of cycles access was blocked
system.cpu.icache.blocked::no_mshrs                 0                       # number of cycles access was blocked
system.cpu.icache.blocked::no_targets               0                       # number of cycles access was blocked
system.cpu.icache.avg_blocked_cycles::no_mshrs          nan                       # average number of cycles each access was blocked
system.cpu.icache.avg_blocked_cycles::no_targets          nan                       # average number of cycles each access was blocked
system.cpu.icache.writebacks::.writebacks            5                       # number of writebacks
system.cpu.icache.writebacks::total                 5                       # number of writebacks
system.cpu.icache.demand_mshr_misses::.cpu.inst         1033                       # number of demand (read+write) MSHR misses
system.cpu.icache.demand_mshr_misses::total         1033                       # number of demand (read+write) MSHR misses
system.cpu.icache.overall_mshr_misses::.cpu.inst         1033                       # number of overall MSHR misses
system.cpu.icache.overall_mshr_misses::total         1033                       # number of overall MSHR misses
system.cpu.icache.demand_mshr_miss_latency::.cpu.inst     79933500                       # number of demand (read+write) MSHR miss cycles
system.cpu.icache.demand_mshr_miss_latency::total     79933500                       # number of demand (read+write) MSHR miss cycles
system.cpu.icache.overall_mshr_miss_latency::.cpu.inst     79933500                       # number of overall MSHR miss cycles
system.cpu.icache.overall_mshr_miss_latency::total     79933500                       # number of overall MSHR miss cycles
system.cpu.icache.demand_mshr_miss_rate::.cpu.inst     0.000046                       # mshr miss rate for demand accesses
system.cpu.icache.demand_mshr_miss_rate::total     0.000046                       # mshr miss rate for demand accesses
system.cpu.icache.overall_mshr_miss_rate::.cpu.inst     0.000046                       # mshr miss rate for overall accesses
system.cpu.icache.overall_mshr_miss_rate::total     0.000046                       # mshr miss rate for overall accesses
system.cpu.icache.demand_avg_mshr_miss_latency::.cpu.inst 77379.961278                       # average overall mshr miss latency
system.cpu.icache.demand_avg_mshr_miss_latency::total 77379.961278                       # average overall mshr miss latency
system.cpu.icache.overall_avg_mshr_miss_latency::.cpu.inst 77379.961278                       # average overall mshr miss latency
system.cpu.icache.overall_avg_mshr_miss_latency::total 77379.961278                       # average overall mshr miss latency
system.cpu.icache.replacements                      5                       # number of replacements
system.cpu.icache.ReadReq_hits::.cpu.inst     22342246                       # number of ReadReq hits
system.cpu.icache.ReadReq_hits::total        22342246                       # number of ReadReq hits
system.cpu.icache.ReadReq_misses::.cpu.inst         1033                       # number of ReadReq misses
system.cpu.icache.ReadReq_misses::total          1033                       # number of ReadReq misses
system.cpu.icache.ReadReq_miss_latency::.cpu.inst     80966500                       # number of ReadReq miss cycles
system.cpu.icache.ReadReq_miss_latency::total     80966500                       # number of ReadReq miss cycles
system.cpu.icache.ReadReq_accesses::.cpu.inst     22343279                       # number of ReadReq accesses(hits+misses)
system.cpu.icache.ReadReq_accesses::total     22343279                       # number of ReadReq accesses(hits+misses)
system.cpu.icache.ReadReq_miss_rate::.cpu.inst     0.000046                       # miss rate for ReadReq accesses
system.cpu.icache.ReadReq_miss_rate::total     0.000046                       # miss rate for ReadReq accesses
system.cpu.icache.ReadReq_avg_miss_latency::.cpu.inst 78379.961278                       # average ReadReq miss latency
system.cpu.icache.ReadReq_avg_miss_latency::total 78379.961278                       # average ReadReq miss latency
system.cpu.icache.ReadReq_mshr_misses::.cpu.inst         1033                       # number of ReadReq MSHR misses
system.cpu.icache.ReadReq_mshr_misses::total         1033                       # number of ReadReq MSHR misses
system.cpu.icache.ReadReq_mshr_miss_latency::.cpu.inst     79933500                       # number of ReadReq MSHR miss cycles
system.cpu.icache.ReadReq_mshr_miss_latency::total     79933500                       # number of ReadReq MSHR miss cycles
system.cpu.icache.ReadReq_mshr_miss_rate::.cpu.inst     0.000046                       # mshr miss rate for ReadReq accesses
system.cpu.icache.ReadReq_mshr_miss_rate::total     0.000046                       # mshr miss rate for ReadReq accesses
system.cpu.icache.ReadReq_avg_mshr_miss_latency::.cpu.inst 77379.961278                       # average ReadReq mshr miss latency
system.cpu.icache.ReadReq_avg_mshr_miss_latency::total 77379.961278                       # average ReadReq mshr miss latency
system.cpu.icache.power_state.pwrStateResidencyTicks::UNDEFINED  30418937500                       # Cumulative time (in ticks) in various power states
system.cpu.icache.tags.tagsinuse           948.386439                       # Cycle average of tags in use
system.cpu.icache.tags.total_refs            22343279                       # Total number of references to valid blocks.
system.cpu.icache.tags.sampled_refs              1033                       # Sample count of references to valid blocks.
system.cpu.icache.tags.avg_refs          21629.505324                       # Average number of references to valid blocks.
system.cpu.icache.tags.warmup_cycle             87500                       # Cycle when the warmup percentage was hit.
system.cpu.icache.tags.occ_blocks::.cpu.inst   948.386439                       # Average occupied blocks per requestor
system.cpu.icache.tags.occ_percent::.cpu.inst     0.231540                       # Average percentage of cache occupancy
system.cpu.icache.tags.occ_percent::total     0.231540                       # Average percentage of cache occupancy
system.cpu.icache.tags.occ_task_id_blocks::1024         1028                       # Occupied blocks per task id
system.cpu.icache.tags.age_task_id_blocks_1024::0           73                       # Occupied blocks per task id
system.cpu.icache.tags.age_task_id_blocks_1024::4          955                       # Occupied blocks per task id
system.cpu.icache.tags.occ_task_id_percent::1024     0.250977                       # Percentage of cache occupancy per task id
system.cpu.icache.tags.tag_accesses          44687591                       # Number of tag accesses
system.cpu.icache.tags.data_accesses         44687591                       # Number of data accesses
system.cpu.icache.tags.power_state.pwrStateResidencyTicks::UNDEFINED  30418937500                       # Cumulative time (in ticks) in various power states
system.cpu.interrupts.clk_domain.clock           8000                       # Clock period in ticks
system.cpu.itb.rdAccesses                           0                       # TLB accesses on read requests
system.cpu.itb.wrAccesses                    22343321                       # TLB accesses on write requests
system.cpu.itb.rdMisses                             0                       # TLB misses on read requests
system.cpu.itb.wrMisses                           159                       # TLB misses on write requests
system.cpu.itb.walker.power_state.pwrStateResidencyTicks::UNDEFINED  30418937500                       # Cumulative time (in ticks) in various power states
system.cpu.itb_walker_cache.blocked_cycles::no_mshrs            0                       # number of cycles access was blocked
system.cpu.itb_walker_cache.blocked_cycles::no_targets            0                       # number of cycles access was blocked
system.cpu.itb_walker_cache.blocked::no_mshrs            0                       # number of cycles access was blocked
system.cpu.itb_walker_cache.blocked::no_targets            0                       # number of cycles access was blocked
system.cpu.itb_walker_cache.avg_blocked_cycles::no_mshrs          nan                       # average number of cycles each access was blocked
system.cpu.itb_walker_cache.avg_blocked_cycles::no_targets          nan                       # average number of cycles each access was blocked
system.cpu.itb_walker_cache.replacements            0                       # number of replacements
system.cpu.itb_walker_cache.power_state.pwrStateResidencyTicks::UNDEFINED  30418937500                       # Cumulative time (in ticks) in various power states
system.cpu.itb_walker_cache.tags.tagsinuse            0                       # Cycle average of tags in use
system.cpu.itb_walker_cache.tags.total_refs            0                       # Total number of references to valid blocks.
system.cpu.itb_walker_cache.tags.sampled_refs            0                       # Sample count of references to valid blocks.
system.cpu.itb_walker_cache.tags.avg_refs          nan                       # Average number of references to valid blocks.
system.cpu.itb_walker_cache.tags.warmup_cycle            0                       # Cycle when the warmup percentage was hit.
system.cpu.itb_walker_cache.tags.tag_accesses            0                       # Number of tag accesses
system.cpu.itb_walker_cache.tags.data_accesses            0                       # Number of data accesses
system.cpu.itb_walker_cache.tags.power_state.pwrStateResidencyTicks::UNDEFINED  30418937500                       # Cumulative time (in ticks) in various power states
system.cpu.power_state.pwrStateResidencyTicks::ON  30418937500                       # Cumulative time (in ticks) in various power states
system.cpu.thread_0.numInsts                        0                       # Number of Instructions committed
system.cpu.thread_0.numOps                          0                       # Number of Ops committed
system.cpu.thread_0.numMemRefs                      0                       # Number of Memory References
system.cpu_clk_domain.clock                       500                       # Clock period in ticks
system.cpu_voltage_domain.voltage                   1                       # Voltage in Volts
system.l2.demand_hits::.cpu.data                    8                       # number of demand (read+write) hits
system.l2.demand_hits::total                        8                       # number of demand (read+write) hits
system.l2.overall_hits::.cpu.data                   8                       # number of overall hits
system.l2.overall_hits::total                       8                       # number of overall hits
system.l2.demand_misses::.cpu.inst               1033                       # number of demand (read+write) misses
system.l2.demand_misses::.cpu.data               3390                       # number of demand (read+write) misses
system.l2.demand_misses::total                   4423                       # number of demand (read+write) misses
system.l2.overall_misses::.cpu.inst              1033                       # number of overall misses
system.l2.overall_misses::.cpu.data              3390                       # number of overall misses
system.l2.overall_misses::total                  4423                       # number of overall misses
system.l2.demand_miss_latency::.cpu.inst     78384000                       # number of demand (read+write) miss cycles
system.l2.demand_miss_latency::.cpu.data    259226000                       # number of demand (read+write) miss cycles
system.l2.demand_miss_latency::total        337610000                       # number of demand (read+write) miss cycles
system.l2.overall_miss_latency::.cpu.inst     78384000                       # number of overall miss cycles
system.l2.overall_miss_latency::.cpu.data    259226000                       # number of overall miss cycles
system.l2.overall_miss_latency::total       337610000                       # number of overall miss cycles
system.l2.demand_accesses::.cpu.inst             1033                       # number of demand (read+write) accesses
system.l2.demand_accesses::.cpu.data             3398                       # number of demand (read+write) accesses
system.l2.demand_accesses::total                 4431                       # number of demand (read+write) accesses
system.l2.overall_accesses::.cpu.inst            1033                       # number of overall (read+write) accesses
system.l2.overall_accesses::.cpu.data            3398                       # number of overall (read+write) accesses
system.l2.overall_accesses::total                4431                       # number of overall (read+write) accesses
system.l2.demand_miss_rate::.cpu.inst               1                       # miss rate for demand accesses
system.l2.demand_miss_rate::.cpu.data        0.997646                       # miss rate for demand accesses
system.l2.demand_miss_rate::total            0.998195                       # miss rate for demand accesses
system.l2.overall_miss_rate::.cpu.inst              1                       # miss rate for overall accesses
system.l2.overall_miss_rate::.cpu.data       0.997646                       # miss rate for overall accesses
system.l2.overall_miss_rate::total           0.998195                       # miss rate for overall accesses
system.l2.demand_avg_miss_latency::.cpu.inst 75879.961278                       # average overall miss latency
system.l2.demand_avg_miss_latency::.cpu.data 76467.846608                       # average overall miss latency
system.l2.demand_avg_miss_latency::total 76330.544879                       # average overall miss latency
system.l2.overall_avg_miss_latency::.cpu.inst 75879.961278                       # average overall miss latency
system.l2.overall_avg_miss_latency::.cpu.data 76467.846608                       # average overall miss latency
system.l2.overall_avg_miss_latency::total 76330.544879                       # average overall miss latency
system.l2.blocked_cycles::no_mshrs                  0                       # number of cycles access was blocked
system.l2.blocked_cycles::no_targets                0                       # number of cycles access was blocked
system.l2.blocked::no_mshrs                         0                       # number of cycles access was blocked
system.l2.blocked::no_targets                       0                       # number of cycles access was blocked
system.l2.avg_blocked_cycles::no_mshrs            nan                       # average number of cycles each access was blocked
system.l2.avg_blocked_cycles::no_targets          nan                       # average number of cycles each access was blocked
system.l2.demand_mshr_misses::.cpu.inst          1033                       # number of demand (read+write) MSHR misses
system.l2.demand_mshr_misses::.cpu.data          3390                       # number of demand (read+write) MSHR misses
system.l2.demand_mshr_misses::total              4423                       # number of demand (read+write) MSHR misses
system.l2.overall_mshr_misses::.cpu.inst         1033                       # number of overall MSHR misses
system.l2.overall_mshr_misses::.cpu.data         3390                       # number of overall MSHR misses
system.l2.overall_mshr_misses::total             4423                       # number of overall MSHR misses
system.l2.demand_mshr_miss_latency::.cpu.inst     68054000                       # number of demand (read+write) MSHR miss cycles
system.l2.demand_mshr_miss_latency::.cpu.data    225326000                       # number of demand (read+write) MSHR miss cycles
system.l2.demand_mshr_miss_latency::total    293380000                       # number of demand (read+write) MSHR miss cycles
system.l2.overall_mshr_miss_latency::.cpu.inst     68054000                       # number of overall MSHR miss cycles
system.l2.overall_mshr_miss_latency::.cpu.data    225326000                       # number of overall MSHR miss cycles
system.l2.overall_mshr_miss_latency::total    293380000                       # number of overall MSHR miss cycles
system.l2.demand_mshr_miss_rate::.cpu.inst            1                       # mshr miss rate for demand accesses
system.l2.demand_mshr_miss_rate::.cpu.data     0.997646                       # mshr miss rate for demand accesses
system.l2.demand_mshr_miss_rate::total       0.998195                       # mshr miss rate for demand accesses
system.l2.overall_mshr_miss_rate::.cpu.inst            1                       # mshr miss rate for overall accesses
system.l2.overall_mshr_miss_rate::.cpu.data     0.997646                       # mshr miss rate for overall accesses
system.l2.overall_mshr_miss_rate::total      0.998195                       # mshr miss rate for overall accesses
system.l2.demand_avg_mshr_miss_latency::.cpu.inst 65879.961278                       # average overall mshr miss latency
system.l2.demand_avg_mshr_miss_latency::.cpu.data 66467.846608                       # average overall mshr miss latency
system.l2.demand_avg_mshr_miss_latency::total 66330.544879                       # average overall mshr miss latency
system.l2.overall_avg_mshr_miss_latency::.cpu.inst 65879.961278                       # average overall mshr miss latency
system.l2.overall_avg_mshr_miss_latency::.cpu.data 66467.846608                       # average overall mshr miss latency
system.l2.overall_avg_mshr_miss_latency::total 66330.544879                       # average overall mshr miss latency
system.l2.replacements                              0                       # number of replacements
system.l2.WritebackDirty_hits::.writebacks          108                       # number of WritebackDirty hits
system.l2.WritebackDirty_hits::total              108                       # number of WritebackDirty hits
system.l2.WritebackDirty_accesses::.writebacks          108                       # number of WritebackDirty accesses(hits+misses)
system.l2.WritebackDirty_accesses::total          108                       # number of WritebackDirty accesses(hits+misses)
system.l2.WritebackClean_hits::.writebacks            5                       # number of WritebackClean hits
system.l2.WritebackClean_hits::total                5                       # number of WritebackClean hits
system.l2.WritebackClean_accesses::.writebacks            5                       # number of WritebackClean accesses(hits+misses)
system.l2.WritebackClean_accesses::total            5                       # number of WritebackClean accesses(hits+misses)
system.l2.ReadExReq_misses::.cpu.data            1395                       # number of ReadExReq misses
system.l2.ReadExReq_misses::total                1395                       # number of ReadExReq misses
system.l2.ReadExReq_miss_latency::.cpu.data    106159500                       # number of ReadExReq miss cycles
system.l2.ReadExReq_miss_latency::total     106159500                       # number of ReadExReq miss cycles
system.l2.ReadExReq_accesses::.cpu.data          1395                       # number of ReadExReq accesses(hits+misses)
system.l2.ReadExReq_accesses::total              1395                       # number of ReadExReq accesses(hits+misses)
system.l2.ReadExReq_miss_rate::.cpu.data            1                       # miss rate for ReadExReq accesses
system.l2.ReadExReq_miss_rate::total                1                       # miss rate for ReadExReq accesses
system.l2.ReadExReq_avg_miss_latency::.cpu.data        76100                       # average ReadExReq miss latency
system.l2.ReadExReq_avg_miss_latency::total        76100                       # average ReadExReq miss latency
system.l2.ReadExReq_mshr_misses::.cpu.data         1395                       # number of ReadExReq MSHR misses
system.l2.ReadExReq_mshr_misses::total           1395                       # number of ReadExReq MSHR misses
system.l2.ReadExReq_mshr_miss_latency::.cpu.data     92209500                       # number of ReadExReq MSHR miss cycles
system.l2.ReadExReq_mshr_miss_latency::total     92209500                       # number of ReadExReq MSHR miss cycles
system.l2.ReadExReq_mshr_miss_rate::.cpu.data            1                       # mshr miss rate for ReadExReq accesses
system.l2.ReadExReq_mshr_miss_rate::total            1                       # mshr miss rate for ReadExReq accesses
system.l2.ReadExReq_avg_mshr_miss_latency::.cpu.data        66100                       # average ReadExReq mshr miss latency
system.l2.ReadExReq_avg_mshr_miss_latency::total        66100                       # average ReadExReq mshr miss latency
system.l2.ReadCleanReq_misses::.cpu.inst         1033                       # number of ReadCleanReq misses
system.l2.ReadCleanReq_misses::total             1033                       # number of ReadCleanReq misses
system.l2.ReadCleanReq_miss_latency::.cpu.inst     78384000                       # number of ReadCleanReq miss cycles
system.l2.ReadCleanReq_miss_latency::total     78384000                       # number of ReadCleanReq miss cycles
system.l2.ReadCleanReq_accesses::.cpu.inst         1033                       # number of ReadCleanReq accesses(hits+misses)
system.l2.ReadCleanReq_accesses::total           1033                       # number of ReadCleanReq accesses(hits+misses)
system.l2.ReadCleanReq_miss_rate::.cpu.inst            1                       # miss rate for ReadCleanReq accesses
system.l2.ReadCleanReq_miss_rate::total             1                       # miss rate for ReadCleanReq accesses
system.l2.ReadCleanReq_avg_miss_latency::.cpu.inst 75879.961278                       # average ReadCleanReq miss latency
system.l2.ReadCleanReq_avg_miss_latency::total 75879.961278                       # average ReadCleanReq miss latency
system.l2.ReadCleanReq_mshr_misses::.cpu.inst         1033                       # number of ReadCleanReq MSHR misses
system.l2.ReadCleanReq_mshr_misses::total         1033                       # number of ReadCleanReq MSHR misses
system.l2.ReadCleanReq_mshr_miss_latency::.cpu.inst     68054000                       # number of ReadCleanReq MSHR miss cycles
system.l2.ReadCleanReq_mshr_miss_latency::total     68054000                       # number of ReadCleanReq MSHR miss cycles
system.l2.ReadCleanReq_mshr_miss_rate::.cpu.inst            1                       # mshr miss rate for ReadCleanReq accesses
system.l2.ReadCleanReq_mshr_miss_rate::total            1                       # mshr miss rate for ReadCleanReq accesses
system.l2.ReadCleanReq_avg_mshr_miss_latency::.cpu.inst 65879.961278                       # average ReadCleanReq mshr miss latency
system.l2.ReadCleanReq_avg_mshr_miss_latency::total 65879.961278                       # average ReadCleanReq mshr miss latency
system.l2.ReadSharedReq_hits::.cpu.data             8                       # number of ReadSharedReq hits
system.l2.ReadSharedReq_hits::total                 8                       # number of ReadSharedReq hits
system.l2.ReadSharedReq_misses::.cpu.data         1995                       # number of ReadSharedReq misses
system.l2.ReadSharedReq_misses::total            1995                       # number of ReadSharedReq misses
system.l2.ReadSharedReq_miss_latency::.cpu.data    153066500                       # number of ReadSharedReq miss cycles
system.l2.ReadSharedReq_miss_latency::total    153066500                       # number of ReadSharedReq miss cycles
system.l2.ReadSharedReq_accesses::.cpu.data         2003                       # number of ReadSharedReq accesses(hits+misses)
system.l2.ReadSharedReq_accesses::total          2003                       # number of ReadSharedReq accesses(hits+misses)
system.l2.ReadSharedReq_miss_rate::.cpu.data     0.996006                       # miss rate for ReadSharedReq accesses
system.l2.ReadSharedReq_miss_rate::total     0.996006                       # miss rate for ReadSharedReq accesses
system.l2.ReadSharedReq_avg_miss_latency::.cpu.data 76725.062657                       # average ReadSharedReq miss latency
system.l2.ReadSharedReq_avg_miss_latency::total 76725.062657                       # average ReadSharedReq miss latency
system.l2.ReadSharedReq_mshr_misses::.cpu.data         1995                       # number of ReadSharedReq MSHR misses
system.l2.ReadSharedReq_mshr_misses::total         1995                       # number of ReadSharedReq MSHR misses
system.l2.ReadSharedReq_mshr_miss_latency::.cpu.data    133116500                       # number of ReadSharedReq MSHR miss cycles
system.l2.ReadSharedReq_mshr_miss_latency::total    133116500                       # number of ReadSharedReq MSHR miss cycles
system.l2.ReadSharedReq_mshr_miss_rate::.cpu.data     0.996006                       # mshr miss rate for ReadSharedReq accesses
system.l2.ReadSharedReq_mshr_miss_rate::total     0.996006                       # mshr miss rate for ReadSharedReq accesses
system.l2.ReadSharedReq_avg_mshr_miss_latency::.cpu.data 66725.062657                       # average ReadSharedReq mshr miss latency
system.l2.ReadSharedReq_avg_mshr_miss_latency::total 66725.062657                       # average ReadSharedReq mshr miss latency
system.l2.power_state.pwrStateResidencyTicks::UNDEFINED  30418937500                       # Cumulative time (in ticks) in various power states
system.l2.tags.tagsinuse                  4296.065500                       # Cycle average of tags in use
system.l2.tags.total_refs                        4697                       # Total number of references to valid blocks.
system.l2.tags.sampled_refs                      4423                       # Sample count of references to valid blocks.
system.l2.tags.avg_refs                      1.061949                       # Average number of references to valid blocks.
system.l2.tags.warmup_cycle                     77000                       # Cycle when the warmup percentage was hit.
system.l2.tags.occ_blocks::.cpu.inst       952.326695                       # Average occupied blocks per requestor
system.l2.tags.occ_blocks::.cpu.data      3343.738804                       # Average occupied blocks per requestor
system.l2.tags.occ_percent::.cpu.inst        0.058125                       # Average percentage of cache occupancy
system.l2.tags.occ_percent::.cpu.data        0.204086                       # Average percentage of cache occupancy
system.l2.tags.occ_percent::total            0.262211                       # Average percentage of cache occupancy
system.l2.tags.occ_task_id_blocks::1024          4423                       # Occupied blocks per task id
system.l2.tags.age_task_id_blocks_1024::0           78                       # Occupied blocks per task id
system.l2.tags.age_task_id_blocks_1024::4         4345                       # Occupied blocks per task id
system.l2.tags.occ_task_id_percent::1024     0.269958                       # Percentage of cache occupancy per task id
system.l2.tags.tag_accesses                      9120                       # Number of tag accesses
system.l2.tags.data_accesses                     9120                       # Number of data accesses
system.l2.tags.power_state.pwrStateResidencyTicks::UNDEFINED  30418937500                       # Cumulative time (in ticks) in various power states
system.mem_ctrls.avgPriority_.cpu.inst::samples      1033.00                       # Average QoS priority value for accepted requests
system.mem_ctrls.avgPriority_.cpu.data::samples      3390.00                       # Average QoS priority value for accepted requests
system.mem_ctrls.priorityMinLatency      0.000000018750                       # per QoS priority minimum request to response latency (s)
system.mem_ctrls.priorityMaxLatency      0.000000577500                       # per QoS priority maximum request to response latency (s)
system.mem_ctrls.numReadWriteTurnArounds            0                       # Number of turnarounds from READ to WRITE
system.mem_ctrls.numWriteReadTurnArounds            0                       # Number of turnarounds from WRITE to READ
system.mem_ctrls.numStayReadState               16658                       # Number of times bus staying in READ state
system.mem_ctrls.numStayWriteState                  0                       # Number of times bus staying in WRITE state
system.mem_ctrls.readReqs                        4423                       # Number of read requests accepted
system.mem_ctrls.writeReqs                          0                       # Number of write requests accepted
system.mem_ctrls.readBursts                      4423                       # Number of controller read bursts, including those serviced by the write queue
system.mem_ctrls.writeBursts                        0                       # Number of controller write bursts, including those merged in the write queue
system.mem_ctrls.servicedByWrQ                      0                       # Number of controller read bursts serviced by the write queue
system.mem_ctrls.mergedWrBursts                     0                       # Number of controller write bursts merged with an existing one
system.mem_ctrls.neitherReadNorWriteReqs            0                       # Number of requests that are neither read nor write
system.mem_ctrls.avgRdQLen                       1.00                       # Average read queue length when enqueuing
system.mem_ctrls.avgWrQLen                       0.00                       # Average write queue length when enqueuing
system.mem_ctrls.numRdRetry                         0                       # Number of times read queue was full causing retry
system.mem_ctrls.numWrRetry                         0                       # Number of times write queue was full causing retry
system.mem_ctrls.readPktSize::0                     0                       # Read request sizes (log2)
system.mem_ctrls.readPktSize::1                     0                       # Read request sizes (log2)
system.mem_ctrls.readPktSize::2                     0                       # Read request sizes (log2)
system.mem_ctrls.readPktSize::3                     0                       # Read request sizes (log2)
system.mem_ctrls.readPktSize::4                     0                       # Read request sizes (log2)
system.mem_ctrls.readPktSize::5                     0                       # Read request sizes (log2)
system.mem_ctrls.readPktSize::6                  4423                       # Read request sizes (log2)
system.mem_ctrls.writePktSize::0                    0                       # Write request sizes (log2)
system.mem_ctrls.writePktSize::1                    0                       # Write request sizes (log2)
system.mem_ctrls.writePktSize::2                    0                       # Write request sizes (log2)
system.mem_ctrls.writePktSize::3                    0                       # Write request sizes (log2)
system.mem_ctrls.writePktSize::4                    0                       # Write request sizes (log2)
system.mem_ctrls.writePktSize::5                    0                       # Write request sizes (log2)
system.mem_ctrls.writePktSize::6                    0                       # Write request sizes (log2)
system.mem_ctrls.rdQLenPdf::0                    4423                       # What read queue length does an incoming req see
system.mem_ctrls.rdQLenPdf::1                       0                       # What read queue length does an incoming req see
system.mem_ctrls.rdQLenPdf::2                       0                       # What read queue length does an incoming req see
system.mem_ctrls.rdQLenPdf::3                       0                       # What read queue length does an incoming req see
system.mem_ctrls.rdQLenPdf::4                       0                       # What read queue length does an incoming req see
system.mem_ctrls.rdQLenPdf::5                       0                       # What read queue length does an incoming req see
system.mem_ctrls.rdQLenPdf::6                       0                       # What read queue length does an incoming req see
system.mem_ctrls.rdQLenPdf::7                       0                       # What read queue length does an incoming req see
system.mem_ctrls.rdQLenPdf::8                       0                       # What read queue length does an incoming req see
system.mem_ctrls.rdQLenPdf::9                       0                       # What read queue length does an incoming req see
system.mem_ctrls.rdQLenPdf::10                      0                       # What read queue length does an incoming req see
system.mem_ctrls.rdQLenPdf::11                      0                       # What read queue length does an incoming req see
system.mem_ctrls.rdQLenPdf::12                      0                       # What read queue length does an incoming req see
system.mem_ctrls.rdQLenPdf::13                      0                       # What read queue length does an incoming req see
system.mem_ctrls.rdQLenPdf::14                      0                       # What read queue length does an incoming req see
system.mem_ctrls.rdQLenPdf::15                      0                       # What read queue length does an incoming req see
system.mem_ctrls.rdQLenPdf::16                      0                       # What read queue length does an incoming req see
system.mem_ctrls.rdQLenPdf::17                      0                       # What read queue length does an incoming req see
system.mem_ctrls.rdQLenPdf::18                      0                       # What read queue length does an incoming req see
system.mem_ctrls.rdQLenPdf::19                      0                       # What read queue length does an incoming req see
system.mem_ctrls.rdQLenPdf::20                      0                       # What read queue length does an incoming req see
system.mem_ctrls.rdQLenPdf::21                      0                       # What read queue length does an incoming req see
system.mem_ctrls.rdQLenPdf::22                      0                       # What read queue length does an incoming req see
system.mem_ctrls.rdQLenPdf::23                      0                       # What read queue length does an incoming req see
system.mem_ctrls.rdQLenPdf::24                      0                       # What read queue length does an incoming req see
system.mem_ctrls.rdQLenPdf::25                      0                       # What read queue length does an incoming req see
system.mem_ctrls.rdQLenPdf::26                      0                       # What read queue length does an incoming req see
system.mem_ctrls.rdQLenPdf::27                      0                       # What read queue length does an incoming req see
system.mem_ctrls.rdQLenPdf::28                      0                       # What read queue length does an incoming req see
system.mem_ctrls.rdQLenPdf::29                      0                       # What read queue length does an incoming req see
system.mem_ctrls.rdQLenPdf::30                      0                       # What read queue length does an incoming req see
system.mem_ctrls.rdQLenPdf::31                      0                       # What read queue length does an incoming req see
system.mem_ctrls.wrQLenPdf::0                       0                       # What write queue length does an incoming req see
system.mem_ctrls.wrQLenPdf::1                       0                       # What write queue length does an incoming req see
system.mem_ctrls.wrQLenPdf::2                       0                       # What write queue length does an incoming req see
system.mem_ctrls.wrQLenPdf::3                       0                       # What write queue length does an incoming req see
system.mem_ctrls.wrQLenPdf::4                       0                       # What write queue length does an incoming req see
system.mem_ctrls.wrQLenPdf::5                       0                       # What write queue length does an incoming req see
system.mem_ctrls.wrQLenPdf::6                       0                       # What write queue length does an incoming req see
system.mem_ctrls.wrQLenPdf::7                       0                       # What write queue length does an incoming req see
system.mem_ctrls.wrQLenPdf::8                       0                       # What write queue length does an incoming req see
system.mem_ctrls.wrQLenPdf::9                       0                       # What write queue length does an incoming req see
system.mem_ctrls.wrQLenPdf::10                      0                       # What write queue length does an incoming req see
system.mem_ctrls.wrQLenPdf::11                      0                       # What write queue length does an incoming req see
system.mem_ctrls.wrQLenPdf::12                      0                       # What write queue length does an incoming req see
system.mem_ctrls.wrQLenPdf::13                      0                       # What write queue length does an incoming req see
system.mem_ctrls.wrQLenPdf::14                      0                       # What write queue length does an incoming req see
system.mem_ctrls.wrQLenPdf::15                      0                       # What write queue length does an incoming req see
system.mem_ctrls.wrQLenPdf::16                      0                       # What write queue length does an incoming req see
system.mem_ctrls.wrQLenPdf::17                      0                       # What write queue length does an incoming req see
system.mem_ctrls.wrQLenPdf::18                      0                       # What write queue length does an incoming req see
system.mem_ctrls.wrQLenPdf::19                      0                       # What write queue length does an incoming req see
system.mem_ctrls.wrQLenPdf::20                      0                       # What write queue length does an incoming req see
system.mem_ctrls.wrQLenPdf::21                      0                       # What write queue length does an incoming req see
system.mem_ctrls.wrQLenPdf::22                      0                       # What write queue length does an incoming req see
system.mem_ctrls.wrQLenPdf::23                      0                       # What write queue length does an incoming req see
system.mem_ctrls.wrQLenPdf::24                      0                       # What write queue length does an incoming req see
system.mem_ctrls.wrQLenPdf::25                      0                       # What write queue length does an incoming req see
system.mem_ctrls.wrQLenPdf::26                      0                       # What write queue length does an incoming req see
system.mem_ctrls.wrQLenPdf::27                      0                       # What write queue length does an incoming req see
system.mem_ctrls.wrQLenPdf::28                      0                       # What write queue length does an incoming req see
system.mem_ctrls.wrQLenPdf::29                      0                       # What write queue length does an incoming req see
system.mem_ctrls.wrQLenPdf::30                      0                       # What write queue length does an incoming req see
system.mem_ctrls.wrQLenPdf::31                      0                       # What write queue length does an incoming req see
system.mem_ctrls.wrQLenPdf::32                      0                       # What write queue length does an incoming req see
system.mem_ctrls.wrQLenPdf::33                      0                       # What write queue length does an incoming req see
system.mem_ctrls.wrQLenPdf::34                      0                       # What write queue length does an incoming req see
system.mem_ctrls.wrQLenPdf::35                      0                       # What write queue length does an incoming req see
system.mem_ctrls.wrQLenPdf::36                      0                       # What write queue length does an incoming req see
system.mem_ctrls.wrQLenPdf::37                      0                       # What write queue length does an incoming req see
system.mem_ctrls.wrQLenPdf::38                      0                       # What write queue length does an incoming req see
system.mem_ctrls.wrQLenPdf::39                      0                       # What write queue length does an incoming req see
system.mem_ctrls.wrQLenPdf::40                      0                       # What write queue length does an incoming req see
system.mem_ctrls.wrQLenPdf::41                      0                       # What write queue length does an incoming req see
system.mem_ctrls.wrQLenPdf::42                      0                       # What write queue length does an incoming req see
system.mem_ctrls.wrQLenPdf::43                      0                       # What write queue length does an incoming req see
system.mem_ctrls.wrQLenPdf::44                      0                       # What write queue length does an incoming req see
system.mem_ctrls.wrQLenPdf::45                      0                       # What write queue length does an incoming req see
system.mem_ctrls.wrQLenPdf::46                      0                       # What write queue length does an incoming req see
system.mem_ctrls.wrQLenPdf::47                      0                       # What write queue length does an incoming req see
system.mem_ctrls.wrQLenPdf::48                      0                       # What write queue length does an incoming req see
system.mem_ctrls.wrQLenPdf::49                      0                       # What write queue length does an incoming req see
system.mem_ctrls.wrQLenPdf::50                      0                       # What write queue length does an incoming req see
system.mem_ctrls.wrQLenPdf::51                      0                       # What write queue length does an incoming req see
system.mem_ctrls.wrQLenPdf::52                      0                       # What write queue length does an incoming req see
system.mem_ctrls.wrQLenPdf::53                      0                       # What write queue length does an incoming req see
system.mem_ctrls.wrQLenPdf::54                      0                       # What write queue length does an incoming req see
system.mem_ctrls.wrQLenPdf::55                      0                       # What write queue length does an incoming req see
system.mem_ctrls.wrQLenPdf::56                      0                       # What write queue length does an incoming req see
system.mem_ctrls.wrQLenPdf::57                      0                       # What write queue length does an incoming req see
system.mem_ctrls.wrQLenPdf::58                      0                       # What write queue length does an incoming req see
system.mem_ctrls.wrQLenPdf::59                      0                       # What write queue length does an incoming req see
system.mem_ctrls.wrQLenPdf::60                      0                       # What write queue length does an incoming req see
system.mem_ctrls.wrQLenPdf::61                      0                       # What write queue length does an incoming req see
system.mem_ctrls.wrQLenPdf::62                      0                       # What write queue length does an incoming req see
system.mem_ctrls.wrQLenPdf::63                      0                       # What write queue length does an incoming req see
system.mem_ctrls.bytesReadWrQ                       0                       # Total number of bytes read from write queue
system.mem_ctrls.bytesReadSys                  283072                       # Total read bytes from the system interface side
system.mem_ctrls.bytesWrittenSys                    0                       # Total written bytes from the system interface side
system.mem_ctrls.avgRdBWSys                      9.31                       # Average system read bandwidth in MiByte/s
system.mem_ctrls.avgWrBWSys                      0.00                       # Average system write bandwidth in MiByte/s
system.mem_ctrls.totGap                   30418863500                       # Total gap between requests
system.mem_ctrls.avgGap                    6877427.88                       # Average gap between requests
system.mem_ctrls.requestorReadBytes::.cpu.inst        66112                       # Per-requestor bytes read from memory
system.mem_ctrls.requestorReadBytes::.cpu.data       216960                       # Per-requestor bytes read from memory
system.mem_ctrls.requestorReadRate::.cpu.inst 2173382.946067725308                       # Per-requestor bytes read from memory rate (Bytes/sec)
system.mem_ctrls.requestorReadRate::.cpu.data 7132399.019525255077                       # Per-requestor bytes read from memory rate (Bytes/sec)
system.mem_ctrls.requestorReadAccesses::.cpu.inst         1033                       # Per-requestor read serviced memory accesses
system.mem_ctrls.requestorReadAccesses::.cpu.data         3390                       # Per-requestor read serviced memory accesses
system.mem_ctrls.requestorReadTotalLat::.cpu.inst     25897500                       # Per-requestor read total memory access latency
system.mem_ctrls.requestorReadTotalLat::.cpu.data     87024000                       # Per-requestor read total memory access latency
system.mem_ctrls.requestorReadAvgLat::.cpu.inst     25070.18                       # Per-requestor read average memory access latency
system.mem_ctrls.requestorReadAvgLat::.cpu.data     25670.80                       # Per-requestor read average memory access latency
system.mem_ctrls.dram.bytes_read::.cpu.inst        66112                       # Number of bytes read from this memory
system.mem_ctrls.dram.bytes_read::.cpu.data       216960                       # Number of bytes read from this memory
system.mem_ctrls.dram.bytes_read::total        283072                       # Number of bytes read from this memory
system.mem_ctrls.dram.bytes_inst_read::.cpu.inst        66112                       # Number of instructions bytes read from this memory
system.mem_ctrls.dram.bytes_inst_read::total        66112                       # Number of instructions bytes read from this memory
system.mem_ctrls.dram.num_reads::.cpu.inst         1033                       # Number of read requests responded to by this memory
system.mem_ctrls.dram.num_reads::.cpu.data         3390                       # Number of read requests responded to by this memory
system.mem_ctrls.dram.num_reads::total           4423                       # Number of read requests responded to by this memory
system.mem_ctrls.dram.bw_read::.cpu.inst      2173383                       # Total read bandwidth from this memory (bytes/s)
system.mem_ctrls.dram.bw_read::.cpu.data      7132399                       # Total read bandwidth from this memory (bytes/s)
system.mem_ctrls.dram.bw_read::total          9305782                       # Total read bandwidth from this memory (bytes/s)
system.mem_ctrls.dram.bw_inst_read::.cpu.inst      2173383                       # Instruction read bandwidth from this memory (bytes/s)
system.mem_ctrls.dram.bw_inst_read::total      2173383                       # Instruction read bandwidth from this memory (bytes/s)
system.mem_ctrls.dram.bw_total::.cpu.inst      2173383                       # Total bandwidth to/from this memory (bytes/s)
system.mem_ctrls.dram.bw_total::.cpu.data      7132399                       # Total bandwidth to/from this memory (bytes/s)
system.mem_ctrls.dram.bw_total::total         9305782                       # Total bandwidth to/from this memory (bytes/s)
system.mem_ctrls.dram.readBursts                 4423                       # Number of DRAM read bursts
system.mem_ctrls.dram.writeBursts                   0                       # Number of DRAM write bursts
system.mem_ctrls.dram.perBankRdBursts::0          378                       # Per bank write bursts
system.mem_ctrls.dram.perBankRdBursts::1          395                       # Per bank write bursts
system.mem_ctrls.dram.perBankRdBursts::2          405                       # Per bank write bursts
system.mem_ctrls.dram.perBankRdBursts::3          327                       # Per bank write bursts
system.mem_ctrls.dram.perBankRdBursts::4          379                       # Per bank write bursts
system.mem_ctrls.dram.perBankRdBursts::5          297                       # Per bank write bursts
system.mem_ctrls.dram.perBankRdBursts::6          322                       # Per bank write bursts
system.mem_ctrls.dram.perBankRdBursts::7          148                       # Per bank write bursts
system.mem_ctrls.dram.perBankRdBursts::8          238                       # Per bank write bursts
system.mem_ctrls.dram.perBankRdBursts::9          250                       # Per bank write bursts
system.mem_ctrls.dram.perBankRdBursts::10          273                       # Per bank write bursts
system.mem_ctrls.dram.perBankRdBursts::11          215                       # Per bank write bursts
system.mem_ctrls.dram.perBankRdBursts::12          140                       # Per bank write bursts
system.mem_ctrls.dram.perBankRdBursts::13          186                       # Per bank write bursts
system.mem_ctrls.dram.perBankRdBursts::14          284                       # Per bank write bursts
system.mem_ctrls.dram.perBankRdBursts::15          186                       # Per bank write bursts
system.mem_ctrls.dram.perBankWrBursts::0            0                       # Per bank write bursts
system.mem_ctrls.dram.perBankWrBursts::1            0                       # Per bank write bursts
system.mem_ctrls.dram.perBankWrBursts::2            0                       # Per bank write bursts
system.mem_ctrls.dram.perBankWrBursts::3            0                       # Per bank write bursts
system.mem_ctrls.dram.perBankWrBursts::4            0                       # Per bank write bursts
system.mem_ctrls.dram.perBankWrBursts::5            0                       # Per bank write bursts
system.mem_ctrls.dram.perBankWrBursts::6            0                       # Per bank write bursts
system.mem_ctrls.dram.perBankWrBursts::7            0                       # Per bank write bursts
system.mem_ctrls.dram.perBankWrBursts::8            0                       # Per bank write bursts
system.mem_ctrls.dram.perBankWrBursts::9            0                       # Per bank write bursts
system.mem_ctrls.dram.perBankWrBursts::10            0                       # Per bank write bursts
system.mem_ctrls.dram.perBankWrBursts::11            0                       # Per bank write bursts
system.mem_ctrls.dram.perBankWrBursts::12            0                       # Per bank write bursts
system.mem_ctrls.dram.perBankWrBursts::13            0                       # Per bank write bursts
system.mem_ctrls.dram.perBankWrBursts::14            0                       # Per bank write bursts
system.mem_ctrls.dram.perBankWrBursts::15            0                       # Per bank write bursts
system.mem_ctrls.dram.totQLat                29990250                       # Total ticks spent queuing
system.mem_ctrls.dram.totBusLat              22115000                       # Total ticks spent in databus transfers
system.mem_ctrls.dram.totMemAccLat          112921500                       # Total ticks spent from burst creation until serviced by the DRAM
system.mem_ctrls.dram.avgQLat                 6780.52                       # Average queueing delay per DRAM burst
system.mem_ctrls.dram.avgBusLat               5000.00                       # Average bus latency per DRAM burst
system.mem_ctrls.dram.avgMemAccLat           25530.52                       # Average memory access latency per DRAM burst
system.mem_ctrls.dram.readRowHits                3642                       # Number of row buffer hits during reads
system.mem_ctrls.dram.writeRowHits                  0                       # Number of row buffer hits during writes
system.mem_ctrls.dram.readRowHitRate            82.34                       # Row buffer hit rate for reads
system.mem_ctrls.dram.writeRowHitRate             nan                       # Row buffer hit rate for writes
system.mem_ctrls.dram.bytesPerActivate::samples          773                       # Bytes accessed per row activation
system.mem_ctrls.dram.bytesPerActivate::mean   363.715395                       # Bytes accessed per row activation
system.mem_ctrls.dram.bytesPerActivate::gmean   218.904976                       # Bytes accessed per row activation
system.mem_ctrls.dram.bytesPerActivate::stdev   351.866940                       # Bytes accessed per row activation
system.mem_ctrls.dram.bytesPerActivate::0-127          223     28.85%     28.85% # Bytes accessed per row activation
system.mem_ctrls.dram.bytesPerActivate::128-255          200     25.87%     54.72% # Bytes accessed per row activation
system.mem_ctrls.dram.bytesPerActivate::256-383           83     10.74%     65.46% # Bytes accessed per row activation
system.mem_ctrls.dram.bytesPerActivate::384-511           47      6.08%     71.54% # Bytes accessed per row activation
system.mem_ctrls.dram.bytesPerActivate::512-639           27      3.49%     75.03% # Bytes accessed per row activation
system.mem_ctrls.dram.bytesPerActivate::640-767           23      2.98%     78.01% # Bytes accessed per row activation
system.mem_ctrls.dram.bytesPerActivate::768-895           34      4.40%     82.41% # Bytes accessed per row activation
system.mem_ctrls.dram.bytesPerActivate::896-1023           30      3.88%     86.29% # Bytes accessed per row activation
system.mem_ctrls.dram.bytesPerActivate::1024-1151          106     13.71%    100.00% # Bytes accessed per row activation
system.mem_ctrls.dram.bytesPerActivate::total          773                       # Bytes accessed per row activation
system.mem_ctrls.dram.bytesRead                283072                       # Total number of bytes read from DRAM
system.mem_ctrls.dram.bytesWritten                  0                       # Total number of bytes written to DRAM
system.mem_ctrls.dram.avgRdBW                9.305782                       # Average DRAM read bandwidth in MiBytes/s
system.mem_ctrls.dram.avgWrBW                       0                       # Average DRAM write bandwidth in MiBytes/s
system.mem_ctrls.dram.peakBW                 12800.00                       # Theoretical peak bandwidth in MiByte/s
system.mem_ctrls.dram.busUtil                    0.07                       # Data bus utilization in percentage
system.mem_ctrls.dram.busUtilRead                0.07                       # Data bus utilization in percentage for reads
system.mem_ctrls.dram.busUtilWrite               0.00                       # Data bus utilization in percentage for writes
system.mem_ctrls.dram.pageHitRate               82.34                       # Row buffer hit rate, read and write combined
system.mem_ctrls.dram.power_state.pwrStateResidencyTicks::UNDEFINED  30418937500                       # Cumulative time (in ticks) in various power states
system.mem_ctrls.dram.rank0.actEnergy         2863140                       # Energy for activate commands per rank (pJ)
system.mem_ctrls.dram.rank0.preEnergy         1506615                       # Energy for precharge commands per rank (pJ)
system.mem_ctrls.dram.rank0.readEnergy       18928140                       # Energy for read commands per rank (pJ)
system.mem_ctrls.dram.rank0.writeEnergy             0                       # Energy for write commands per rank (pJ)
system.mem_ctrls.dram.rank0.refreshEnergy 2400783840.000000                       # Energy for refresh commands per rank (pJ)
system.mem_ctrls.dram.rank0.actBackEnergy    817694640                       # Energy for active background per rank (pJ)
system.mem_ctrls.dram.rank0.preBackEnergy  10992287040                       # Energy for precharge background per rank (pJ)
system.mem_ctrls.dram.rank0.actPowerDownEnergy            0                       # Energy for active power-down per rank (pJ)
system.mem_ctrls.dram.rank0.prePowerDownEnergy            0                       # Energy for precharge power-down per rank (pJ)
system.mem_ctrls.dram.rank0.selfRefreshEnergy            0                       # Energy for self refresh per rank (pJ)
system.mem_ctrls.dram.rank0.totalEnergy   14234063415                       # Total energy per rank (pJ)
system.mem_ctrls.dram.rank0.averagePower   467.934273                       # Core power per rank (mW)
system.mem_ctrls.dram.rank0.totalIdleTime            0                       # Total Idle time Per DRAM Rank
system.mem_ctrls.dram.rank0.pwrStateTime::IDLE  28570044250                       # Time in different power states
system.mem_ctrls.dram.rank0.pwrStateTime::REF   1015560000                       # Time in different power states
system.mem_ctrls.dram.rank0.pwrStateTime::SREF            0                       # Time in different power states
system.mem_ctrls.dram.rank0.pwrStateTime::PRE_PDN            0                       # Time in different power states
system.mem_ctrls.dram.rank0.pwrStateTime::ACT    833333250                       # Time in different power states
system.mem_ctrls.dram.rank0.pwrStateTime::ACT_PDN            0                       # Time in different power states
system.mem_ctrls.dram.rank1.actEnergy         2713200                       # Energy for activate commands per rank (pJ)
system.mem_ctrls.dram.rank1.preEnergy         1426920                       # Energy for precharge commands per rank (pJ)
system.mem_ctrls.dram.rank1.readEnergy       12652080                       # Energy for read commands per rank (pJ)
system.mem_ctrls.dram.rank1.writeEnergy             0                       # Energy for write commands per rank (pJ)
system.mem_ctrls.dram.rank1.refreshEnergy 2400783840.000000                       # Energy for refresh commands per rank (pJ)
system.mem_ctrls.dram.rank1.actBackEnergy    651287130                       # Energy for active background per rank (pJ)
system.mem_ctrls.dram.rank1.preBackEnergy  11132419680                       # Energy for precharge background per rank (pJ)
system.mem_ctrls.dram.rank1.actPowerDownEnergy            0                       # Energy for active power-down per rank (pJ)
system.mem_ctrls.dram.rank1.prePowerDownEnergy            0                       # Energy for precharge power-down per rank (pJ)
system.mem_ctrls.dram.rank1.selfRefreshEnergy            0                       # Energy for self refresh per rank (pJ)
system.mem_ctrls.dram.rank1.totalEnergy   14201282850                       # Total energy per rank (pJ)
system.mem_ctrls.dram.rank1.averagePower   466.856637                       # Core power per rank (mW)
system.mem_ctrls.dram.rank1.totalIdleTime            0                       # Total Idle time Per DRAM Rank
system.mem_ctrls.dram.rank1.pwrStateTime::IDLE  28935840500                       # Time in different power states
system.mem_ctrls.dram.rank1.pwrStateTime::REF   1015560000                       # Time in different power states
system.mem_ctrls.dram.rank1.pwrStateTime::SREF            0                       # Time in different power states
system.mem_ctrls.dram.rank1.pwrStateTime::PRE_PDN            0                       # Time in different power states
system.mem_ctrls.dram.rank1.pwrStateTime::ACT    467537000                       # Time in different power states
system.mem_ctrls.dram.rank1.pwrStateTime::ACT_PDN            0                       # Time in different power states
system.mem_ctrls.power_state.pwrStateResidencyTicks::UNDEFINED  30418937500                       # Cumulative time (in ticks) in various power states
system.membus.trans_dist::ReadResp               3028                       # Transaction distribution
system.membus.trans_dist::ReadExReq              1395                       # Transaction distribution
system.membus.trans_dist::ReadExResp             1395                       # Transaction distribution
system.membus.trans_dist::ReadSharedReq          3028                       # Transaction distribution
system.membus.pkt_count_system.l2.mem_side_port::system.mem_ctrls.port         8846                       # Packet count per connected requestor and responder (bytes)
system.membus.pkt_count_system.l2.mem_side_port::total         8846                       # Packet count per connected requestor and responder (bytes)
system.membus.pkt_count::total                   8846                       # Packet count per connected requestor and responder (bytes)
system.membus.pkt_size_system.l2.mem_side_port::system.mem_ctrls.port       283072                       # Cumulative packet size per connected requestor and responder (bytes)
system.membus.pkt_size_system.l2.mem_side_port::total       283072                       # Cumulative packet size per connected requestor and responder (bytes)
system.membus.pkt_size::total                  283072                       # Cumulative packet size per connected requestor and responder (bytes)
system.membus.snoops                                0                       # Total snoops (count)
system.membus.snoopTraffic                          0                       # Total snoop traffic (bytes)
system.membus.snoop_fanout::samples              4423                       # Request fanout histogram
system.membus.snoop_fanout::mean                    0                       # Request fanout histogram
system.membus.snoop_fanout::stdev                   0                       # Request fanout histogram
system.membus.snoop_fanout::underflows              0      0.00%      0.00% # Request fanout histogram
system.membus.snoop_fanout::0                    4423    100.00%    100.00% # Request fanout histogram
system.membus.snoop_fanout::1                       0      0.00%    100.00% # Request fanout histogram
system.membus.snoop_fanout::overflows               0      0.00%    100.00% # Request fanout histogram
system.membus.snoop_fanout::min_value               0                       # Request fanout histogram
system.membus.snoop_fanout::max_value               0                       # Request fanout histogram
system.membus.snoop_fanout::total                4423                       # Request fanout histogram
system.membus.power_state.pwrStateResidencyTicks::UNDEFINED  30418937500                       # Cumulative time (in ticks) in various power states
system.membus.reqLayer2.occupancy             4423500                       # Layer occupancy (ticks)
system.membus.reqLayer2.utilization               0.0                       # Layer utilization (%)
system.membus.respLayer1.occupancy           23441500                       # Layer occupancy (ticks)
system.membus.respLayer1.utilization              0.1                       # Layer utilization (%)
system.tol2bus.trans_dist::ReadResp              3036                       # Transaction distribution
system.tol2bus.trans_dist::WritebackDirty          108                       # Transaction distribution
system.tol2bus.trans_dist::WritebackClean            5                       # Transaction distribution
system.tol2bus.trans_dist::CleanEvict             153                       # Transaction distribution
system.tol2bus.trans_dist::ReadExReq             1395                       # Transaction distribution
system.tol2bus.trans_dist::ReadExResp            1395                       # Transaction distribution
system.tol2bus.trans_dist::ReadCleanReq          1033                       # Transaction distribution
system.tol2bus.trans_dist::ReadSharedReq         2003                       # Transaction distribution
system.tol2bus.pkt_count_system.cpu.icache.mem_side_port::system.l2.cpu_side_port         2071                       # Packet count per connected requestor and responder (bytes)
system.tol2bus.pkt_count_system.cpu.dcache.mem_side_port::system.l2.cpu_side_port         7057                       # Packet count per connected requestor and responder (bytes)
system.tol2bus.pkt_count::total                  9128                       # Packet count per connected requestor and responder (bytes)
system.tol2bus.pkt_size_system.cpu.icache.mem_side_port::system.l2.cpu_side_port        66432                       # Cumulative packet size per connected requestor and responder (bytes)
system.tol2bus.pkt_size_system.cpu.dcache.mem_side_port::system.l2.cpu_side_port       224384                       # Cumulative packet size per connected requestor and responder (bytes)
system.tol2bus.pkt_size::total                 290816                       # Cumulative packet size per connected requestor and responder (bytes)
system.tol2bus.snoops                               0                       # Total snoops (count)
system.tol2bus.snoopTraffic                         0                       # Total snoop traffic (bytes)
system.tol2bus.snoop_fanout::samples             4431                       # Request fanout histogram
system.tol2bus.snoop_fanout::mean                   0                       # Request fanout histogram
system.tol2bus.snoop_fanout::stdev                  0                       # Request fanout histogram
system.tol2bus.snoop_fanout::underflows             0      0.00%      0.00% # Request fanout histogram
system.tol2bus.snoop_fanout::0                   4431    100.00%    100.00% # Request fanout histogram
system.tol2bus.snoop_fanout::1                      0      0.00%    100.00% # Request fanout histogram
system.tol2bus.snoop_fanout::2                      0      0.00%    100.00% # Request fanout histogram
system.tol2bus.snoop_fanout::3                      0      0.00%    100.00% # Request fanout histogram
system.tol2bus.snoop_fanout::4                      0      0.00%    100.00% # Request fanout histogram
system.tol2bus.snoop_fanout::overflows              0      0.00%    100.00% # Request fanout histogram
system.tol2bus.snoop_fanout::min_value              0                       # Request fanout histogram
system.tol2bus.snoop_fanout::max_value              0                       # Request fanout histogram
system.tol2bus.snoop_fanout::total               4431                       # Request fanout histogram
system.tol2bus.power_state.pwrStateResidencyTicks::UNDEFINED  30418937500                       # Cumulative time (in ticks) in various power states
system.tol2bus.reqLayer0.occupancy            2461500                       # Layer occupancy (ticks)
system.tol2bus.reqLayer0.utilization              0.0                       # Layer utilization (%)
system.tol2bus.respLayer0.occupancy           1549500                       # Layer occupancy (ticks)
system.tol2bus.respLayer0.utilization             0.0                       # Layer utilization (%)
system.tol2bus.respLayer1.occupancy           5097000                       # Layer occupancy (ticks)
system.tol2bus.respLayer1.utilization             0.0                       # Layer utilization (%)
system.voltage_domain.voltage                       1                       # Voltage in Volts

---------- End Simulation Statistics   ----------
