
---------- Begin Simulation Statistics ----------
final_tick                               193228131500                       # Number of ticks from beginning of simulation (restored from checkpoints and never reset)
host_inst_rate                                 858610                       # Simulator instruction rate (inst/s)
host_mem_usage                                 666336                       # Number of bytes of host memory used
host_op_rate                                   996320                       # Simulator op (including micro ops) rate (op/s)
host_seconds                                   125.72                       # Real time elapsed on the host
host_tick_rate                             1536925726                       # Simulator tick rate (ticks/s)
sim_freq                                 1000000000000                       # Frequency of simulated ticks
sim_insts                                   107947553                       # Number of instructions simulated
sim_ops                                     125261123                       # Number of ops (including micro ops) simulated
sim_seconds                                  0.193228                       # Number of seconds simulated
sim_ticks                                193228131500                       # Number of ticks simulated
system.cpu.Branches                           2213288                       # Number of branches fetched
system.cpu.committedInsts                   107947553                       # Number of instructions committed
system.cpu.committedOps                     125261123                       # Number of ops (including micro ops) committed
system.cpu.idle_fraction                     0.000000                       # Percentage of idle cycles
system.cpu.not_idle_fraction                 1.000000                       # Percentage of non-idle cycles
system.cpu.numCycles                        386456263                       # number of cpu cycles simulated
system.cpu.numWorkItemsCompleted                    0                       # number of work items this cpu completed
system.cpu.numWorkItemsStarted                      0                       # number of work items this cpu started
system.cpu.num_busy_cycles               386456262.998000                       # Number of busy cycles
system.cpu.num_cc_register_reads             19436222                       # number of times the CC registers were read
system.cpu.num_cc_register_writes            65638282                       # number of times the CC registers were written
system.cpu.num_conditional_control_insts      2188425                       # number of instructions that are conditional controls
system.cpu.num_fp_alu_accesses                   5132                       # Number of float alu accesses
system.cpu.num_fp_insts                          5132                       # number of float instructions
system.cpu.num_fp_register_reads                 7051                       # number of times the floating registers were read
system.cpu.num_fp_register_writes                3575                       # number of times the floating registers were written
system.cpu.num_func_calls                        2918                       # number of times a function call or return occured
system.cpu.num_idle_cycles                   0.002000                       # Number of idle cycles
system.cpu.num_int_alu_accesses             125255806                       # Number of integer alu accesses
system.cpu.num_int_insts                    125255806                       # number of integer instructions
system.cpu.num_int_register_reads           290482649                       # number of times the integer registers were read
system.cpu.num_int_register_writes          120825579                       # number of times the integer registers were written
system.cpu.num_load_insts                    46518640                       # Number of load instructions
system.cpu.num_mem_refs                      50834927                       # number of memory refs
system.cpu.num_store_insts                    4316287                       # Number of store instructions
system.cpu.num_vec_alu_accesses                     0                       # Number of vector alu accesses
system.cpu.num_vec_insts                            0                       # number of vector instructions
system.cpu.num_vec_register_reads                   0                       # number of times the vector registers were read
system.cpu.num_vec_register_writes                  0                       # number of times the vector registers were written
system.cpu.op_class::No_OpClass                  2893      0.00%      0.00% # Class of executed instruction
system.cpu.op_class::IntAlu                  72322106     57.74%     57.74% # Class of executed instruction
system.cpu.op_class::IntMult                  2097169      1.67%     59.41% # Class of executed instruction
system.cpu.op_class::IntDiv                      1272      0.00%     59.41% # Class of executed instruction
system.cpu.op_class::FloatAdd                     353      0.00%     59.41% # Class of executed instruction
system.cpu.op_class::FloatCmp                       0      0.00%     59.41% # Class of executed instruction
system.cpu.op_class::FloatCvt                      32      0.00%     59.41% # Class of executed instruction
system.cpu.op_class::FloatMult                      0      0.00%     59.41% # Class of executed instruction
system.cpu.op_class::FloatMultAcc                   0      0.00%     59.41% # Class of executed instruction
system.cpu.op_class::FloatDiv                       0      0.00%     59.41% # Class of executed instruction
system.cpu.op_class::FloatMisc                      0      0.00%     59.41% # Class of executed instruction
system.cpu.op_class::FloatSqrt                      0      0.00%     59.41% # Class of executed instruction
system.cpu.op_class::SimdAdd                      310      0.00%     59.42% # Class of executed instruction
system.cpu.op_class::SimdAddAcc                     0      0.00%     59.42% # Class of executed instruction
system.cpu.op_class::SimdAlu                      637      0.00%     59.42% # Class of executed instruction
system.cpu.op_class::SimdCmp                        6      0.00%     59.42% # Class of executed instruction
system.cpu.op_class::SimdCvt                      688      0.00%     59.42% # Class of executed instruction
system.cpu.op_class::SimdMisc                     798      0.00%     59.42% # Class of executed instruction
system.cpu.op_class::SimdMult                       0      0.00%     59.42% # Class of executed instruction
system.cpu.op_class::SimdMultAcc                    0      0.00%     59.42% # Class of executed instruction
system.cpu.op_class::SimdShift                     70      0.00%     59.42% # Class of executed instruction
system.cpu.op_class::SimdShiftAcc                   0      0.00%     59.42% # Class of executed instruction
system.cpu.op_class::SimdDiv                        0      0.00%     59.42% # Class of executed instruction
system.cpu.op_class::SimdSqrt                       0      0.00%     59.42% # Class of executed instruction
system.cpu.op_class::SimdFloatAdd                   0      0.00%     59.42% # Class of executed instruction
system.cpu.op_class::SimdFloatAlu                   0      0.00%     59.42% # Class of executed instruction
system.cpu.op_class::SimdFloatCmp                   0      0.00%     59.42% # Class of executed instruction
system.cpu.op_class::SimdFloatCvt                   0      0.00%     59.42% # Class of executed instruction
system.cpu.op_class::SimdFloatDiv                   0      0.00%     59.42% # Class of executed instruction
system.cpu.op_class::SimdFloatMisc                  0      0.00%     59.42% # Class of executed instruction
system.cpu.op_class::SimdFloatMult                  0      0.00%     59.42% # Class of executed instruction
system.cpu.op_class::SimdFloatMultAcc               0      0.00%     59.42% # Class of executed instruction
system.cpu.op_class::SimdFloatSqrt                  0      0.00%     59.42% # Class of executed instruction
system.cpu.op_class::SimdReduceAdd                  0      0.00%     59.42% # Class of executed instruction
system.cpu.op_class::SimdReduceAlu                  0      0.00%     59.42% # Class of executed instruction
system.cpu.op_class::SimdReduceCmp                  0      0.00%     59.42% # Class of executed instruction
system.cpu.op_class::SimdFloatReduceAdd             0      0.00%     59.42% # Class of executed instruction
system.cpu.op_class::SimdFloatReduceCmp             0      0.00%     59.42% # Class of executed instruction
system.cpu.op_class::SimdAes                        0      0.00%     59.42% # Class of executed instruction
system.cpu.op_class::SimdAesMix                     0      0.00%     59.42% # Class of executed instruction
system.cpu.op_class::SimdSha1Hash                   0      0.00%     59.42% # Class of executed instruction
system.cpu.op_class::SimdSha1Hash2                  0      0.00%     59.42% # Class of executed instruction
system.cpu.op_class::SimdSha256Hash                 0      0.00%     59.42% # Class of executed instruction
system.cpu.op_class::SimdSha256Hash2                0      0.00%     59.42% # Class of executed instruction
system.cpu.op_class::SimdShaSigma2                  0      0.00%     59.42% # Class of executed instruction
system.cpu.op_class::SimdShaSigma3                  0      0.00%     59.42% # Class of executed instruction
system.cpu.op_class::SimdPredAlu                    0      0.00%     59.42% # Class of executed instruction
system.cpu.op_class::MemRead                 46517824     37.14%     96.55% # Class of executed instruction
system.cpu.op_class::MemWrite                 4315142      3.44%    100.00% # Class of executed instruction
system.cpu.op_class::FloatMemRead                 816      0.00%    100.00% # Class of executed instruction
system.cpu.op_class::FloatMemWrite               1145      0.00%    100.00% # Class of executed instruction
system.cpu.op_class::IprAccess                      0      0.00%    100.00% # Class of executed instruction
system.cpu.op_class::InstPrefetch                   0      0.00%    100.00% # Class of executed instruction
system.cpu.op_class::total                  125261261                       # Class of executed instruction
system.cpu.workload.numSyscalls                    35                       # Number of system calls
system.membus.snoop_filter.hit_multi_requests            0                       # Number of requests hitting in the snoop filter with multiple (>1) holders of the requested data.
system.membus.snoop_filter.hit_multi_snoops            0                       # Number of snoops hitting in the snoop filter with multiple (>1) holders of the requested data.
system.membus.snoop_filter.hit_single_requests            0                       # Number of requests hitting in the snoop filter with a single holder of the requested data.
system.membus.snoop_filter.hit_single_snoops            0                       # Number of snoops hitting in the snoop filter with a single holder of the requested data.
system.membus.snoop_filter.tot_requests          6671                       # Total number of requests made to the snoop filter.
system.membus.snoop_filter.tot_snoops               0                       # Total number of snoops made to the snoop filter.
system.tol2bus.snoop_filter.hit_multi_requests            0                       # Number of requests hitting in the snoop filter with multiple (>1) holders of the requested data.
system.tol2bus.snoop_filter.hit_multi_snoops            0                       # Number of snoops hitting in the snoop filter with multiple (>1) holders of the requested data.
system.tol2bus.snoop_filter.hit_single_requests         1813                       # Number of requests hitting in the snoop filter with a single holder of the requested data.
system.tol2bus.snoop_filter.hit_single_snoops            0                       # Number of snoops hitting in the snoop filter with a single holder of the requested data.
system.tol2bus.snoop_filter.tot_requests         8520                       # Total number of requests made to the snoop filter.
system.tol2bus.snoop_filter.tot_snoops              0                       # Total number of snoops made to the snoop filter.
system.clk_domain.clock                          1000                       # Clock period in ticks
system.cpu.dcache.demand_hits::.cpu.data     50829035                       # number of demand (read+write) hits
system.cpu.dcache.demand_hits::total         50829035                       # number of demand (read+write) hits
system.cpu.dcache.overall_hits::.cpu.data     50829035                       # number of overall hits
system.cpu.dcache.overall_hits::total        50829035                       # number of overall hits
system.cpu.dcache.demand_misses::.cpu.data         5792                       # number of demand (read+write) misses
system.cpu.dcache.demand_misses::total           5792                       # number of demand (read+write) misses
system.cpu.dcache.overall_misses::.cpu.data         5792                       # number of overall misses
system.cpu.dcache.overall_misses::total          5792                       # number of overall misses
system.cpu.dcache.demand_miss_latency::.cpu.data    454014000                       # number of demand (read+write) miss cycles
system.cpu.dcache.demand_miss_latency::total    454014000                       # number of demand (read+write) miss cycles
system.cpu.dcache.overall_miss_latency::.cpu.data    454014000                       # number of overall miss cycles
system.cpu.dcache.overall_miss_latency::total    454014000                       # number of overall miss cycles
system.cpu.dcache.demand_accesses::.cpu.data     50834827                       # number of demand (read+write) accesses
system.cpu.dcache.demand_accesses::total     50834827                       # number of demand (read+write) accesses
system.cpu.dcache.overall_accesses::.cpu.data     50834827                       # number of overall (read+write) accesses
system.cpu.dcache.overall_accesses::total     50834827                       # number of overall (read+write) accesses
system.cpu.dcache.demand_miss_rate::.cpu.data     0.000114                       # miss rate for demand accesses
system.cpu.dcache.demand_miss_rate::total     0.000114                       # miss rate for demand accesses
system.cpu.dcache.overall_miss_rate::.cpu.data     0.000114                       # miss rate for overall accesses
system.cpu.dcache.overall_miss_rate::total     0.000114                       # miss rate for overall accesses
system.cpu.dcache.demand_avg_miss_latency::.cpu.data 78386.395028                       # average overall miss latency
system.cpu.dcache.demand_avg_miss_latency::total 78386.395028                       # average overall miss latency
system.cpu.dcache.overall_avg_miss_latency::.cpu.data 78386.395028                       # average overall miss latency
system.cpu.dcache.overall_avg_miss_latency::total 78386.395028                       # average overall miss latency
system.cpu.dcache.blocked_cycles::no_mshrs            0                       # number of cycles access was blocked
system.cpu.dcache.blocked_cycles::no_targets            0                       # number of cycles access was blocked
system.cpu.dcache.blocked::no_mshrs                 0                       # number of cycles access was blocked
system.cpu.dcache.blocked::no_targets               0                       # number of cycles access was blocked
system.cpu.dcache.avg_blocked_cycles::no_mshrs          nan                       # average number of cycles each access was blocked
system.cpu.dcache.avg_blocked_cycles::no_targets          nan                       # average number of cycles each access was blocked
system.cpu.dcache.writebacks::.writebacks          535                       # number of writebacks
system.cpu.dcache.writebacks::total               535                       # number of writebacks
system.cpu.dcache.demand_mshr_misses::.cpu.data         5792                       # number of demand (read+write) MSHR misses
system.cpu.dcache.demand_mshr_misses::total         5792                       # number of demand (read+write) MSHR misses
system.cpu.dcache.overall_mshr_misses::.cpu.data         5792                       # number of overall MSHR misses
system.cpu.dcache.overall_mshr_misses::total         5792                       # number of overall MSHR misses
system.cpu.dcache.demand_mshr_miss_latency::.cpu.data    448222000                       # number of demand (read+write) MSHR miss cycles
system.cpu.dcache.demand_mshr_miss_latency::total    448222000                       # number of demand (read+write) MSHR miss cycles
system.cpu.dcache.overall_mshr_miss_latency::.cpu.data    448222000                       # number of overall MSHR miss cycles
system.cpu.dcache.overall_mshr_miss_latency::total    448222000                       # number of overall MSHR miss cycles
system.cpu.dcache.demand_mshr_miss_rate::.cpu.data     0.000114                       # mshr miss rate for demand accesses
system.cpu.dcache.demand_mshr_miss_rate::total     0.000114                       # mshr miss rate for demand accesses
system.cpu.dcache.overall_mshr_miss_rate::.cpu.data     0.000114                       # mshr miss rate for overall accesses
system.cpu.dcache.overall_mshr_miss_rate::total     0.000114                       # mshr miss rate for overall accesses
system.cpu.dcache.demand_avg_mshr_miss_latency::.cpu.data 77386.395028                       # average overall mshr miss latency
system.cpu.dcache.demand_avg_mshr_miss_latency::total 77386.395028                       # average overall mshr miss latency
system.cpu.dcache.overall_avg_mshr_miss_latency::.cpu.data 77386.395028                       # average overall mshr miss latency
system.cpu.dcache.overall_avg_mshr_miss_latency::total 77386.395028                       # average overall mshr miss latency
system.cpu.dcache.replacements                   1810                       # number of replacements
system.cpu.dcache.ReadReq_hits::.cpu.data     46516583                       # number of ReadReq hits
system.cpu.dcache.ReadReq_hits::total        46516583                       # number of ReadReq hits
system.cpu.dcache.ReadReq_misses::.cpu.data         2019                       # number of ReadReq misses
system.cpu.dcache.ReadReq_misses::total          2019                       # number of ReadReq misses
system.cpu.dcache.ReadReq_miss_latency::.cpu.data    158502000                       # number of ReadReq miss cycles
system.cpu.dcache.ReadReq_miss_latency::total    158502000                       # number of ReadReq miss cycles
system.cpu.dcache.ReadReq_accesses::.cpu.data     46518602                       # number of ReadReq accesses(hits+misses)
system.cpu.dcache.ReadReq_accesses::total     46518602                       # number of ReadReq accesses(hits+misses)
system.cpu.dcache.ReadReq_miss_rate::.cpu.data     0.000043                       # miss rate for ReadReq accesses
system.cpu.dcache.ReadReq_miss_rate::total     0.000043                       # miss rate for ReadReq accesses
system.cpu.dcache.ReadReq_avg_miss_latency::.cpu.data 78505.200594                       # average ReadReq miss latency
system.cpu.dcache.ReadReq_avg_miss_latency::total 78505.200594                       # average ReadReq miss latency
system.cpu.dcache.ReadReq_mshr_misses::.cpu.data         2019                       # number of ReadReq MSHR misses
system.cpu.dcache.ReadReq_mshr_misses::total         2019                       # number of ReadReq MSHR misses
system.cpu.dcache.ReadReq_mshr_miss_latency::.cpu.data    156483000                       # number of ReadReq MSHR miss cycles
system.cpu.dcache.ReadReq_mshr_miss_latency::total    156483000                       # number of ReadReq MSHR miss cycles
system.cpu.dcache.ReadReq_mshr_miss_rate::.cpu.data     0.000043                       # mshr miss rate for ReadReq accesses
system.cpu.dcache.ReadReq_mshr_miss_rate::total     0.000043                       # mshr miss rate for ReadReq accesses
system.cpu.dcache.ReadReq_avg_mshr_miss_latency::.cpu.data 77505.200594                       # average ReadReq mshr miss latency
system.cpu.dcache.ReadReq_avg_mshr_miss_latency::total 77505.200594                       # average ReadReq mshr miss latency
system.cpu.dcache.WriteReq_hits::.cpu.data      4312452                       # number of WriteReq hits
system.cpu.dcache.WriteReq_hits::total        4312452                       # number of WriteReq hits
system.cpu.dcache.WriteReq_misses::.cpu.data         3773                       # number of WriteReq misses
system.cpu.dcache.WriteReq_misses::total         3773                       # number of WriteReq misses
system.cpu.dcache.WriteReq_miss_latency::.cpu.data    295512000                       # number of WriteReq miss cycles
system.cpu.dcache.WriteReq_miss_latency::total    295512000                       # number of WriteReq miss cycles
system.cpu.dcache.WriteReq_accesses::.cpu.data      4316225                       # number of WriteReq accesses(hits+misses)
system.cpu.dcache.WriteReq_accesses::total      4316225                       # number of WriteReq accesses(hits+misses)
system.cpu.dcache.WriteReq_miss_rate::.cpu.data     0.000874                       # miss rate for WriteReq accesses
system.cpu.dcache.WriteReq_miss_rate::total     0.000874                       # miss rate for WriteReq accesses
system.cpu.dcache.WriteReq_avg_miss_latency::.cpu.data 78322.820037                       # average WriteReq miss latency
system.cpu.dcache.WriteReq_avg_miss_latency::total 78322.820037                       # average WriteReq miss latency
system.cpu.dcache.WriteReq_mshr_misses::.cpu.data         3773                       # number of WriteReq MSHR misses
system.cpu.dcache.WriteReq_mshr_misses::total         3773                       # number of WriteReq MSHR misses
system.cpu.dcache.WriteReq_mshr_miss_latency::.cpu.data    291739000                       # number of WriteReq MSHR miss cycles
system.cpu.dcache.WriteReq_mshr_miss_latency::total    291739000                       # number of WriteReq MSHR miss cycles
system.cpu.dcache.WriteReq_mshr_miss_rate::.cpu.data     0.000874                       # mshr miss rate for WriteReq accesses
system.cpu.dcache.WriteReq_mshr_miss_rate::total     0.000874                       # mshr miss rate for WriteReq accesses
system.cpu.dcache.WriteReq_avg_mshr_miss_latency::.cpu.data 77322.820037                       # average WriteReq mshr miss latency
system.cpu.dcache.WriteReq_avg_mshr_miss_latency::total 77322.820037                       # average WriteReq mshr miss latency
system.cpu.dcache.power_state.pwrStateResidencyTicks::UNDEFINED 193228131500                       # Cumulative time (in ticks) in various power states
system.cpu.dcache.tags.tagsinuse          3970.840775                       # Cycle average of tags in use
system.cpu.dcache.tags.total_refs            50834827                       # Total number of references to valid blocks.
system.cpu.dcache.tags.sampled_refs              5792                       # Sample count of references to valid blocks.
system.cpu.dcache.tags.avg_refs           8776.731181                       # Average number of references to valid blocks.
system.cpu.dcache.tags.warmup_cycle            174500                       # Cycle when the warmup percentage was hit.
system.cpu.dcache.tags.occ_blocks::.cpu.data  3970.840775                       # Average occupied blocks per requestor
system.cpu.dcache.tags.occ_percent::.cpu.data     0.969444                       # Average percentage of cache occupancy
system.cpu.dcache.tags.occ_percent::total     0.969444                       # Average percentage of cache occupancy
system.cpu.dcache.tags.occ_task_id_blocks::1024         3982                       # Occupied blocks per task id
system.cpu.dcache.tags.age_task_id_blocks_1024::0           44                       # Occupied blocks per task id
system.cpu.dcache.tags.age_task_id_blocks_1024::4         3938                       # Occupied blocks per task id
system.cpu.dcache.tags.occ_task_id_percent::1024     0.972168                       # Percentage of cache occupancy per task id
system.cpu.dcache.tags.tag_accesses         101675446                       # Number of tag accesses
system.cpu.dcache.tags.data_accesses        101675446                       # Number of data accesses
system.cpu.dcache.tags.power_state.pwrStateResidencyTicks::UNDEFINED 193228131500                       # Cumulative time (in ticks) in various power states
system.cpu.dtb.rdAccesses                    46518643                       # TLB accesses on read requests
system.cpu.dtb.wrAccesses                     4316287                       # TLB accesses on write requests
system.cpu.dtb.rdMisses                           150                       # TLB misses on read requests
system.cpu.dtb.wrMisses                           132                       # TLB misses on write requests
system.cpu.dtb.walker.power_state.pwrStateResidencyTicks::UNDEFINED 193228131500                       # Cumulative time (in ticks) in various power states
system.cpu.dtb_walker_cache.blocked_cycles::no_mshrs            0                       # number of cycles access was blocked
system.cpu.dtb_walker_cache.blocked_cycles::no_targets            0                       # number of cycles access was blocked
system.cpu.dtb_walker_cache.blocked::no_mshrs            0                       # number of cycles access was blocked
system.cpu.dtb_walker_cache.blocked::no_targets            0                       # number of cycles access was blocked
system.cpu.dtb_walker_cache.avg_blocked_cycles::no_mshrs          nan                       # average number of cycles each access was blocked
system.cpu.dtb_walker_cache.avg_blocked_cycles::no_targets          nan                       # average number of cycles each access was blocked
system.cpu.dtb_walker_cache.replacements            0                       # number of replacements
system.cpu.dtb_walker_cache.power_state.pwrStateResidencyTicks::UNDEFINED 193228131500                       # Cumulative time (in ticks) in various power states
system.cpu.dtb_walker_cache.tags.tagsinuse            0                       # Cycle average of tags in use
system.cpu.dtb_walker_cache.tags.total_refs            0                       # Total number of references to valid blocks.
system.cpu.dtb_walker_cache.tags.sampled_refs            0                       # Sample count of references to valid blocks.
system.cpu.dtb_walker_cache.tags.avg_refs          nan                       # Average number of references to valid blocks.
system.cpu.dtb_walker_cache.tags.warmup_cycle            0                       # Cycle when the warmup percentage was hit.
system.cpu.dtb_walker_cache.tags.tag_accesses            0                       # Number of tag accesses
system.cpu.dtb_walker_cache.tags.data_accesses            0                       # Number of data accesses
system.cpu.dtb_walker_cache.tags.power_state.pwrStateResidencyTicks::UNDEFINED 193228131500                       # Cumulative time (in ticks) in various power states
system.cpu.icache.demand_hits::.cpu.inst    141873443                       # number of demand (read+write) hits
system.cpu.icache.demand_hits::total        141873443                       # number of demand (read+write) hits
system.cpu.icache.overall_hits::.cpu.inst    141873443                       # number of overall hits
system.cpu.icache.overall_hits::total       141873443                       # number of overall hits
system.cpu.icache.demand_misses::.cpu.inst          915                       # number of demand (read+write) misses
system.cpu.icache.demand_misses::total            915                       # number of demand (read+write) misses
system.cpu.icache.overall_misses::.cpu.inst          915                       # number of overall misses
system.cpu.icache.overall_misses::total           915                       # number of overall misses
system.cpu.icache.demand_miss_latency::.cpu.inst     71642500                       # number of demand (read+write) miss cycles
system.cpu.icache.demand_miss_latency::total     71642500                       # number of demand (read+write) miss cycles
system.cpu.icache.overall_miss_latency::.cpu.inst     71642500                       # number of overall miss cycles
system.cpu.icache.overall_miss_latency::total     71642500                       # number of overall miss cycles
system.cpu.icache.demand_accesses::.cpu.inst    141874358                       # number of demand (read+write) accesses
system.cpu.icache.demand_accesses::total    141874358                       # number of demand (read+write) accesses
system.cpu.icache.overall_accesses::.cpu.inst    141874358                       # number of overall (read+write) accesses
system.cpu.icache.overall_accesses::total    141874358                       # number of overall (read+write) accesses
system.cpu.icache.demand_miss_rate::.cpu.inst     0.000006                       # miss rate for demand accesses
system.cpu.icache.demand_miss_rate::total     0.000006                       # miss rate for demand accesses
system.cpu.icache.overall_miss_rate::.cpu.inst     0.000006                       # miss rate for overall accesses
system.cpu.icache.overall_miss_rate::total     0.000006                       # miss rate for overall accesses
system.cpu.icache.demand_avg_miss_latency::.cpu.inst 78297.814208                       # average overall miss latency
system.cpu.icache.demand_avg_miss_latency::total 78297.814208                       # average overall miss latency
system.cpu.icache.overall_avg_miss_latency::.cpu.inst 78297.814208                       # average overall miss latency
system.cpu.icache.overall_avg_miss_latency::total 78297.814208                       # average overall miss latency
system.cpu.icache.blocked_cycles::no_mshrs            0                       # number of cycles access was blocked
system.cpu.icache.blocked_cycles::no_targets            0                       # number of cycles access was blocked
system.cpu.icache.blocked::no_mshrs                 0                       # number of cycles access was blocked
system.cpu.icache.blocked::no_targets               0                       # number of cycles access was blocked
system.cpu.icache.avg_blocked_cycles::no_mshrs          nan                       # average number of cycles each access was blocked
system.cpu.icache.avg_blocked_cycles::no_targets          nan                       # average number of cycles each access was blocked
system.cpu.icache.writebacks::.writebacks            3                       # number of writebacks
system.cpu.icache.writebacks::total                 3                       # number of writebacks
system.cpu.icache.demand_mshr_misses::.cpu.inst          915                       # number of demand (read+write) MSHR misses
system.cpu.icache.demand_mshr_misses::total          915                       # number of demand (read+write) MSHR misses
system.cpu.icache.overall_mshr_misses::.cpu.inst          915                       # number of overall MSHR misses
system.cpu.icache.overall_mshr_misses::total          915                       # number of overall MSHR misses
system.cpu.icache.demand_mshr_miss_latency::.cpu.inst     70727500                       # number of demand (read+write) MSHR miss cycles
system.cpu.icache.demand_mshr_miss_latency::total     70727500                       # number of demand (read+write) MSHR miss cycles
system.cpu.icache.overall_mshr_miss_latency::.cpu.inst     70727500                       # number of overall MSHR miss cycles
system.cpu.icache.overall_mshr_miss_latency::total     70727500                       # number of overall MSHR miss cycles
system.cpu.icache.demand_mshr_miss_rate::.cpu.inst     0.000006                       # mshr miss rate for demand accesses
system.cpu.icache.demand_mshr_miss_rate::total     0.000006                       # mshr miss rate for demand accesses
system.cpu.icache.overall_mshr_miss_rate::.cpu.inst     0.000006                       # mshr miss rate for overall accesses
system.cpu.icache.overall_mshr_miss_rate::total     0.000006                       # mshr miss rate for overall accesses
system.cpu.icache.demand_avg_mshr_miss_latency::.cpu.inst 77297.814208                       # average overall mshr miss latency
system.cpu.icache.demand_avg_mshr_miss_latency::total 77297.814208                       # average overall mshr miss latency
system.cpu.icache.overall_avg_mshr_miss_latency::.cpu.inst 77297.814208                       # average overall mshr miss latency
system.cpu.icache.overall_avg_mshr_miss_latency::total 77297.814208                       # average overall mshr miss latency
system.cpu.icache.replacements                      3                       # number of replacements
system.cpu.icache.ReadReq_hits::.cpu.inst    141873443                       # number of ReadReq hits
system.cpu.icache.ReadReq_hits::total       141873443                       # number of ReadReq hits
system.cpu.icache.ReadReq_misses::.cpu.inst          915                       # number of ReadReq misses
system.cpu.icache.ReadReq_misses::total           915                       # number of ReadReq misses
system.cpu.icache.ReadReq_miss_latency::.cpu.inst     71642500                       # number of ReadReq miss cycles
system.cpu.icache.ReadReq_miss_latency::total     71642500                       # number of ReadReq miss cycles
system.cpu.icache.ReadReq_accesses::.cpu.inst    141874358                       # number of ReadReq accesses(hits+misses)
system.cpu.icache.ReadReq_accesses::total    141874358                       # number of ReadReq accesses(hits+misses)
system.cpu.icache.ReadReq_miss_rate::.cpu.inst     0.000006                       # miss rate for ReadReq accesses
system.cpu.icache.ReadReq_miss_rate::total     0.000006                       # miss rate for ReadReq accesses
system.cpu.icache.ReadReq_avg_miss_latency::.cpu.inst 78297.814208                       # average ReadReq miss latency
system.cpu.icache.ReadReq_avg_miss_latency::total 78297.814208                       # average ReadReq miss latency
system.cpu.icache.ReadReq_mshr_misses::.cpu.inst          915                       # number of ReadReq MSHR misses
system.cpu.icache.ReadReq_mshr_misses::total          915                       # number of ReadReq MSHR misses
system.cpu.icache.ReadReq_mshr_miss_latency::.cpu.inst     70727500                       # number of ReadReq MSHR miss cycles
system.cpu.icache.ReadReq_mshr_miss_latency::total     70727500                       # number of ReadReq MSHR miss cycles
system.cpu.icache.ReadReq_mshr_miss_rate::.cpu.inst     0.000006                       # mshr miss rate for ReadReq accesses
system.cpu.icache.ReadReq_mshr_miss_rate::total     0.000006                       # mshr miss rate for ReadReq accesses
system.cpu.icache.ReadReq_avg_mshr_miss_latency::.cpu.inst 77297.814208                       # average ReadReq mshr miss latency
system.cpu.icache.ReadReq_avg_mshr_miss_latency::total 77297.814208                       # average ReadReq mshr miss latency
system.cpu.icache.power_state.pwrStateResidencyTicks::UNDEFINED 193228131500                       # Cumulative time (in ticks) in various power states
system.cpu.icache.tags.tagsinuse           855.281380                       # Cycle average of tags in use
system.cpu.icache.tags.total_refs           141874358                       # Total number of references to valid blocks.
system.cpu.icache.tags.sampled_refs               915                       # Sample count of references to valid blocks.
system.cpu.icache.tags.avg_refs          155053.943169                       # Average number of references to valid blocks.
system.cpu.icache.tags.warmup_cycle             87500                       # Cycle when the warmup percentage was hit.
system.cpu.icache.tags.occ_blocks::.cpu.inst   855.281380                       # Average occupied blocks per requestor
system.cpu.icache.tags.occ_percent::.cpu.inst     0.208809                       # Average percentage of cache occupancy
system.cpu.icache.tags.occ_percent::total     0.208809                       # Average percentage of cache occupancy
system.cpu.icache.tags.occ_task_id_blocks::1024          912                       # Occupied blocks per task id
system.cpu.icache.tags.age_task_id_blocks_1024::0           56                       # Occupied blocks per task id
system.cpu.icache.tags.age_task_id_blocks_1024::4          856                       # Occupied blocks per task id
system.cpu.icache.tags.occ_task_id_percent::1024     0.222656                       # Percentage of cache occupancy per task id
system.cpu.icache.tags.tag_accesses         283749631                       # Number of tag accesses
system.cpu.icache.tags.data_accesses        283749631                       # Number of data accesses
system.cpu.icache.tags.power_state.pwrStateResidencyTicks::UNDEFINED 193228131500                       # Cumulative time (in ticks) in various power states
system.cpu.interrupts.clk_domain.clock           8000                       # Clock period in ticks
system.cpu.itb.rdAccesses                           0                       # TLB accesses on read requests
system.cpu.itb.wrAccesses                   141874386                       # TLB accesses on write requests
system.cpu.itb.rdMisses                             0                       # TLB misses on read requests
system.cpu.itb.wrMisses                           131                       # TLB misses on write requests
system.cpu.itb.walker.power_state.pwrStateResidencyTicks::UNDEFINED 193228131500                       # Cumulative time (in ticks) in various power states
system.cpu.itb_walker_cache.blocked_cycles::no_mshrs            0                       # number of cycles access was blocked
system.cpu.itb_walker_cache.blocked_cycles::no_targets            0                       # number of cycles access was blocked
system.cpu.itb_walker_cache.blocked::no_mshrs            0                       # number of cycles access was blocked
system.cpu.itb_walker_cache.blocked::no_targets            0                       # number of cycles access was blocked
system.cpu.itb_walker_cache.avg_blocked_cycles::no_mshrs          nan                       # average number of cycles each access was blocked
system.cpu.itb_walker_cache.avg_blocked_cycles::no_targets          nan                       # average number of cycles each access was blocked
system.cpu.itb_walker_cache.replacements            0                       # number of replacements
system.cpu.itb_walker_cache.power_state.pwrStateResidencyTicks::UNDEFINED 193228131500                       # Cumulative time (in ticks) in various power states
system.cpu.itb_walker_cache.tags.tagsinuse            0                       # Cycle average of tags in use
system.cpu.itb_walker_cache.tags.total_refs            0                       # Total number of references to valid blocks.
system.cpu.itb_walker_cache.tags.sampled_refs            0                       # Sample count of references to valid blocks.
system.cpu.itb_walker_cache.tags.avg_refs          nan                       # Average number of references to valid blocks.
system.cpu.itb_walker_cache.tags.warmup_cycle            0                       # Cycle when the warmup percentage was hit.
system.cpu.itb_walker_cache.tags.tag_accesses            0                       # Number of tag accesses
system.cpu.itb_walker_cache.tags.data_accesses            0                       # Number of data accesses
system.cpu.itb_walker_cache.tags.power_state.pwrStateResidencyTicks::UNDEFINED 193228131500                       # Cumulative time (in ticks) in various power states
system.cpu.power_state.pwrStateResidencyTicks::ON 193228131500                       # Cumulative time (in ticks) in various power states
system.cpu.thread_0.numInsts                        0                       # Number of Instructions committed
system.cpu.thread_0.numOps                          0                       # Number of Ops committed
system.cpu.thread_0.numMemRefs                      0                       # Number of Memory References
system.cpu_clk_domain.clock                       500                       # Clock period in ticks
system.cpu_voltage_domain.voltage                   1                       # Voltage in Volts
system.l2.demand_hits::.cpu.data                   36                       # number of demand (read+write) hits
system.l2.demand_hits::total                       36                       # number of demand (read+write) hits
system.l2.overall_hits::.cpu.data                  36                       # number of overall hits
system.l2.overall_hits::total                      36                       # number of overall hits
system.l2.demand_misses::.cpu.inst                915                       # number of demand (read+write) misses
system.l2.demand_misses::.cpu.data               5756                       # number of demand (read+write) misses
system.l2.demand_misses::total                   6671                       # number of demand (read+write) misses
system.l2.overall_misses::.cpu.inst               915                       # number of overall misses
system.l2.overall_misses::.cpu.data              5756                       # number of overall misses
system.l2.overall_misses::total                  6671                       # number of overall misses
system.l2.demand_miss_latency::.cpu.inst     69354500                       # number of demand (read+write) miss cycles
system.l2.demand_miss_latency::.cpu.data    439156000                       # number of demand (read+write) miss cycles
system.l2.demand_miss_latency::total        508510500                       # number of demand (read+write) miss cycles
system.l2.overall_miss_latency::.cpu.inst     69354500                       # number of overall miss cycles
system.l2.overall_miss_latency::.cpu.data    439156000                       # number of overall miss cycles
system.l2.overall_miss_latency::total       508510500                       # number of overall miss cycles
system.l2.demand_accesses::.cpu.inst              915                       # number of demand (read+write) accesses
system.l2.demand_accesses::.cpu.data             5792                       # number of demand (read+write) accesses
system.l2.demand_accesses::total                 6707                       # number of demand (read+write) accesses
system.l2.overall_accesses::.cpu.inst             915                       # number of overall (read+write) accesses
system.l2.overall_accesses::.cpu.data            5792                       # number of overall (read+write) accesses
system.l2.overall_accesses::total                6707                       # number of overall (read+write) accesses
system.l2.demand_miss_rate::.cpu.inst               1                       # miss rate for demand accesses
system.l2.demand_miss_rate::.cpu.data        0.993785                       # miss rate for demand accesses
system.l2.demand_miss_rate::total            0.994632                       # miss rate for demand accesses
system.l2.overall_miss_rate::.cpu.inst              1                       # miss rate for overall accesses
system.l2.overall_miss_rate::.cpu.data       0.993785                       # miss rate for overall accesses
system.l2.overall_miss_rate::total           0.994632                       # miss rate for overall accesses
system.l2.demand_avg_miss_latency::.cpu.inst 75797.267760                       # average overall miss latency
system.l2.demand_avg_miss_latency::.cpu.data 76295.343989                       # average overall miss latency
system.l2.demand_avg_miss_latency::total 76227.027432                       # average overall miss latency
system.l2.overall_avg_miss_latency::.cpu.inst 75797.267760                       # average overall miss latency
system.l2.overall_avg_miss_latency::.cpu.data 76295.343989                       # average overall miss latency
system.l2.overall_avg_miss_latency::total 76227.027432                       # average overall miss latency
system.l2.blocked_cycles::no_mshrs                  0                       # number of cycles access was blocked
system.l2.blocked_cycles::no_targets                0                       # number of cycles access was blocked
system.l2.blocked::no_mshrs                         0                       # number of cycles access was blocked
system.l2.blocked::no_targets                       0                       # number of cycles access was blocked
system.l2.avg_blocked_cycles::no_mshrs            nan                       # average number of cycles each access was blocked
system.l2.avg_blocked_cycles::no_targets          nan                       # average number of cycles each access was blocked
system.l2.demand_mshr_misses::.cpu.inst           915                       # number of demand (read+write) MSHR misses
system.l2.demand_mshr_misses::.cpu.data          5756                       # number of demand (read+write) MSHR misses
system.l2.demand_mshr_misses::total              6671                       # number of demand (read+write) MSHR misses
system.l2.overall_mshr_misses::.cpu.inst          915                       # number of overall MSHR misses
system.l2.overall_mshr_misses::.cpu.data         5756                       # number of overall MSHR misses
system.l2.overall_mshr_misses::total             6671                       # number of overall MSHR misses
system.l2.demand_mshr_miss_latency::.cpu.inst     60204500                       # number of demand (read+write) MSHR miss cycles
system.l2.demand_mshr_miss_latency::.cpu.data    381596000                       # number of demand (read+write) MSHR miss cycles
system.l2.demand_mshr_miss_latency::total    441800500                       # number of demand (read+write) MSHR miss cycles
system.l2.overall_mshr_miss_latency::.cpu.inst     60204500                       # number of overall MSHR miss cycles
system.l2.overall_mshr_miss_latency::.cpu.data    381596000                       # number of overall MSHR miss cycles
system.l2.overall_mshr_miss_latency::total    441800500                       # number of overall MSHR miss cycles
system.l2.demand_mshr_miss_rate::.cpu.inst            1                       # mshr miss rate for demand accesses
system.l2.demand_mshr_miss_rate::.cpu.data     0.993785                       # mshr miss rate for demand accesses
system.l2.demand_mshr_miss_rate::total       0.994632                       # mshr miss rate for demand accesses
system.l2.overall_mshr_miss_rate::.cpu.inst            1                       # mshr miss rate for overall accesses
system.l2.overall_mshr_miss_rate::.cpu.data     0.993785                       # mshr miss rate for overall accesses
system.l2.overall_mshr_miss_rate::total      0.994632                       # mshr miss rate for overall accesses
system.l2.demand_avg_mshr_miss_latency::.cpu.inst 65797.267760                       # average overall mshr miss latency
system.l2.demand_avg_mshr_miss_latency::.cpu.data 66295.343989                       # average overall mshr miss latency
system.l2.demand_avg_mshr_miss_latency::total 66227.027432                       # average overall mshr miss latency
system.l2.overall_avg_mshr_miss_latency::.cpu.inst 65797.267760                       # average overall mshr miss latency
system.l2.overall_avg_mshr_miss_latency::.cpu.data 66295.343989                       # average overall mshr miss latency
system.l2.overall_avg_mshr_miss_latency::total 66227.027432                       # average overall mshr miss latency
system.l2.replacements                              0                       # number of replacements
system.l2.WritebackDirty_hits::.writebacks          535                       # number of WritebackDirty hits
system.l2.WritebackDirty_hits::total              535                       # number of WritebackDirty hits
system.l2.WritebackDirty_accesses::.writebacks          535                       # number of WritebackDirty accesses(hits+misses)
system.l2.WritebackDirty_accesses::total          535                       # number of WritebackDirty accesses(hits+misses)
system.l2.WritebackClean_hits::.writebacks            3                       # number of WritebackClean hits
system.l2.WritebackClean_hits::total                3                       # number of WritebackClean hits
system.l2.WritebackClean_accesses::.writebacks            3                       # number of WritebackClean accesses(hits+misses)
system.l2.WritebackClean_accesses::total            3                       # number of WritebackClean accesses(hits+misses)
system.l2.ReadExReq_hits::.cpu.data                 3                       # number of ReadExReq hits
system.l2.ReadExReq_hits::total                     3                       # number of ReadExReq hits
system.l2.ReadExReq_misses::.cpu.data            3770                       # number of ReadExReq misses
system.l2.ReadExReq_misses::total                3770                       # number of ReadExReq misses
system.l2.ReadExReq_miss_latency::.cpu.data    286048000                       # number of ReadExReq miss cycles
system.l2.ReadExReq_miss_latency::total     286048000                       # number of ReadExReq miss cycles
system.l2.ReadExReq_accesses::.cpu.data          3773                       # number of ReadExReq accesses(hits+misses)
system.l2.ReadExReq_accesses::total              3773                       # number of ReadExReq accesses(hits+misses)
system.l2.ReadExReq_miss_rate::.cpu.data     0.999205                       # miss rate for ReadExReq accesses
system.l2.ReadExReq_miss_rate::total         0.999205                       # miss rate for ReadExReq accesses
system.l2.ReadExReq_avg_miss_latency::.cpu.data 75874.801061                       # average ReadExReq miss latency
system.l2.ReadExReq_avg_miss_latency::total 75874.801061                       # average ReadExReq miss latency
system.l2.ReadExReq_mshr_misses::.cpu.data         3770                       # number of ReadExReq MSHR misses
system.l2.ReadExReq_mshr_misses::total           3770                       # number of ReadExReq MSHR misses
system.l2.ReadExReq_mshr_miss_latency::.cpu.data    248348000                       # number of ReadExReq MSHR miss cycles
system.l2.ReadExReq_mshr_miss_latency::total    248348000                       # number of ReadExReq MSHR miss cycles
system.l2.ReadExReq_mshr_miss_rate::.cpu.data     0.999205                       # mshr miss rate for ReadExReq accesses
system.l2.ReadExReq_mshr_miss_rate::total     0.999205                       # mshr miss rate for ReadExReq accesses
system.l2.ReadExReq_avg_mshr_miss_latency::.cpu.data 65874.801061                       # average ReadExReq mshr miss latency
system.l2.ReadExReq_avg_mshr_miss_latency::total 65874.801061                       # average ReadExReq mshr miss latency
system.l2.ReadCleanReq_misses::.cpu.inst          915                       # number of ReadCleanReq misses
system.l2.ReadCleanReq_misses::total              915                       # number of ReadCleanReq misses
system.l2.ReadCleanReq_miss_latency::.cpu.inst     69354500                       # number of ReadCleanReq miss cycles
system.l2.ReadCleanReq_miss_latency::total     69354500                       # number of ReadCleanReq miss cycles
system.l2.ReadCleanReq_accesses::.cpu.inst          915                       # number of ReadCleanReq accesses(hits+misses)
system.l2.ReadCleanReq_accesses::total            915                       # number of ReadCleanReq accesses(hits+misses)
system.l2.ReadCleanReq_miss_rate::.cpu.inst            1                       # miss rate for ReadCleanReq accesses
system.l2.ReadCleanReq_miss_rate::total             1                       # miss rate for ReadCleanReq accesses
system.l2.ReadCleanReq_avg_miss_latency::.cpu.inst 75797.267760                       # average ReadCleanReq miss latency
system.l2.ReadCleanReq_avg_miss_latency::total 75797.267760                       # average ReadCleanReq miss latency
system.l2.ReadCleanReq_mshr_misses::.cpu.inst          915                       # number of ReadCleanReq MSHR misses
system.l2.ReadCleanReq_mshr_misses::total          915                       # number of ReadCleanReq MSHR misses
system.l2.ReadCleanReq_mshr_miss_latency::.cpu.inst     60204500                       # number of ReadCleanReq MSHR miss cycles
system.l2.ReadCleanReq_mshr_miss_latency::total     60204500                       # number of ReadCleanReq MSHR miss cycles
system.l2.ReadCleanReq_mshr_miss_rate::.cpu.inst            1                       # mshr miss rate for ReadCleanReq accesses
system.l2.ReadCleanReq_mshr_miss_rate::total            1                       # mshr miss rate for ReadCleanReq accesses
system.l2.ReadCleanReq_avg_mshr_miss_latency::.cpu.inst 65797.267760                       # average ReadCleanReq mshr miss latency
system.l2.ReadCleanReq_avg_mshr_miss_latency::total 65797.267760                       # average ReadCleanReq mshr miss latency
system.l2.ReadSharedReq_hits::.cpu.data            33                       # number of ReadSharedReq hits
system.l2.ReadSharedReq_hits::total                33                       # number of ReadSharedReq hits
system.l2.ReadSharedReq_misses::.cpu.data         1986                       # number of ReadSharedReq misses
system.l2.ReadSharedReq_misses::total            1986                       # number of ReadSharedReq misses
system.l2.ReadSharedReq_miss_latency::.cpu.data    153108000                       # number of ReadSharedReq miss cycles
system.l2.ReadSharedReq_miss_latency::total    153108000                       # number of ReadSharedReq miss cycles
system.l2.ReadSharedReq_accesses::.cpu.data         2019                       # number of ReadSharedReq accesses(hits+misses)
system.l2.ReadSharedReq_accesses::total          2019                       # number of ReadSharedReq accesses(hits+misses)
system.l2.ReadSharedReq_miss_rate::.cpu.data     0.983655                       # miss rate for ReadSharedReq accesses
system.l2.ReadSharedReq_miss_rate::total     0.983655                       # miss rate for ReadSharedReq accesses
system.l2.ReadSharedReq_avg_miss_latency::.cpu.data 77093.655589                       # average ReadSharedReq miss latency
system.l2.ReadSharedReq_avg_miss_latency::total 77093.655589                       # average ReadSharedReq miss latency
system.l2.ReadSharedReq_mshr_misses::.cpu.data         1986                       # number of ReadSharedReq MSHR misses
system.l2.ReadSharedReq_mshr_misses::total         1986                       # number of ReadSharedReq MSHR misses
system.l2.ReadSharedReq_mshr_miss_latency::.cpu.data    133248000                       # number of ReadSharedReq MSHR miss cycles
system.l2.ReadSharedReq_mshr_miss_latency::total    133248000                       # number of ReadSharedReq MSHR miss cycles
system.l2.ReadSharedReq_mshr_miss_rate::.cpu.data     0.983655                       # mshr miss rate for ReadSharedReq accesses
system.l2.ReadSharedReq_mshr_miss_rate::total     0.983655                       # mshr miss rate for ReadSharedReq accesses
system.l2.ReadSharedReq_avg_mshr_miss_latency::.cpu.data 67093.655589                       # average ReadSharedReq mshr miss latency
system.l2.ReadSharedReq_avg_mshr_miss_latency::total 67093.655589                       # average ReadSharedReq mshr miss latency
system.l2.power_state.pwrStateResidencyTicks::UNDEFINED 193228131500                       # Cumulative time (in ticks) in various power states
system.l2.tags.tagsinuse                  6581.924705                       # Cycle average of tags in use
system.l2.tags.total_refs                        8520                       # Total number of references to valid blocks.
system.l2.tags.sampled_refs                      6671                       # Sample count of references to valid blocks.
system.l2.tags.avg_refs                      1.277170                       # Average number of references to valid blocks.
system.l2.tags.warmup_cycle                     77000                       # Cycle when the warmup percentage was hit.
system.l2.tags.occ_blocks::.cpu.inst       858.276882                       # Average occupied blocks per requestor
system.l2.tags.occ_blocks::.cpu.data      5723.647823                       # Average occupied blocks per requestor
system.l2.tags.occ_percent::.cpu.inst        0.052385                       # Average percentage of cache occupancy
system.l2.tags.occ_percent::.cpu.data        0.349344                       # Average percentage of cache occupancy
system.l2.tags.occ_percent::total            0.401729                       # Average percentage of cache occupancy
system.l2.tags.occ_task_id_blocks::1024          6671                       # Occupied blocks per task id
system.l2.tags.age_task_id_blocks_1024::0           64                       # Occupied blocks per task id
system.l2.tags.age_task_id_blocks_1024::4         6607                       # Occupied blocks per task id
system.l2.tags.occ_task_id_percent::1024     0.407166                       # Percentage of cache occupancy per task id
system.l2.tags.tag_accesses                     15191                       # Number of tag accesses
system.l2.tags.data_accesses                    15191                       # Number of data accesses
system.l2.tags.power_state.pwrStateResidencyTicks::UNDEFINED 193228131500                       # Cumulative time (in ticks) in various power states
system.mem_ctrls.avgPriority_.cpu.inst::samples       915.00                       # Average QoS priority value for accepted requests
system.mem_ctrls.avgPriority_.cpu.data::samples      5756.00                       # Average QoS priority value for accepted requests
system.mem_ctrls.priorityMinLatency      0.000000018750                       # per QoS priority minimum request to response latency (s)
system.mem_ctrls.priorityMaxLatency      0.000000579500                       # per QoS priority maximum request to response latency (s)
system.mem_ctrls.numReadWriteTurnArounds            0                       # Number of turnarounds from READ to WRITE
system.mem_ctrls.numWriteReadTurnArounds            0                       # Number of turnarounds from WRITE to READ
system.mem_ctrls.numStayReadState               62974                       # Number of times bus staying in READ state
system.mem_ctrls.numStayWriteState                  0                       # Number of times bus staying in WRITE state
system.mem_ctrls.readReqs                        6671                       # Number of read requests accepted
system.mem_ctrls.writeReqs                          0                       # Number of write requests accepted
system.mem_ctrls.readBursts                      6671                       # Number of controller read bursts, including those serviced by the write queue
system.mem_ctrls.writeBursts                        0                       # Number of controller write bursts, including those merged in the write queue
system.mem_ctrls.servicedByWrQ                      0                       # Number of controller read bursts serviced by the write queue
system.mem_ctrls.mergedWrBursts                     0                       # Number of controller write bursts merged with an existing one
system.mem_ctrls.neitherReadNorWriteReqs            0                       # Number of requests that are neither read nor write
system.mem_ctrls.avgRdQLen                       1.00                       # Average read queue length when enqueuing
system.mem_ctrls.avgWrQLen                       0.00                       # Average write queue length when enqueuing
system.mem_ctrls.numRdRetry                         0                       # Number of times read queue was full causing retry
system.mem_ctrls.numWrRetry                         0                       # Number of times write queue was full causing retry
system.mem_ctrls.readPktSize::0                     0                       # Read request sizes (log2)
system.mem_ctrls.readPktSize::1                     0                       # Read request sizes (log2)
system.mem_ctrls.readPktSize::2                     0                       # Read request sizes (log2)
system.mem_ctrls.readPktSize::3                     0                       # Read request sizes (log2)
system.mem_ctrls.readPktSize::4                     0                       # Read request sizes (log2)
system.mem_ctrls.readPktSize::5                     0                       # Read request sizes (log2)
system.mem_ctrls.readPktSize::6                  6671                       # Read request sizes (log2)
system.mem_ctrls.writePktSize::0                    0                       # Write request sizes (log2)
system.mem_ctrls.writePktSize::1                    0                       # Write request sizes (log2)
system.mem_ctrls.writePktSize::2                    0                       # Write request sizes (log2)
system.mem_ctrls.writePktSize::3                    0                       # Write request sizes (log2)
system.mem_ctrls.writePktSize::4                    0                       # Write request sizes (log2)
system.mem_ctrls.writePktSize::5                    0                       # Write request sizes (log2)
system.mem_ctrls.writePktSize::6                    0                       # Write request sizes (log2)
system.mem_ctrls.rdQLenPdf::0                    6671                       # What read queue length does an incoming req see
system.mem_ctrls.rdQLenPdf::1                       0                       # What read queue length does an incoming req see
system.mem_ctrls.rdQLenPdf::2                       0                       # What read queue length does an incoming req see
system.mem_ctrls.rdQLenPdf::3                       0                       # What read queue length does an incoming req see
system.mem_ctrls.rdQLenPdf::4                       0                       # What read queue length does an incoming req see
system.mem_ctrls.rdQLenPdf::5                       0                       # What read queue length does an incoming req see
system.mem_ctrls.rdQLenPdf::6                       0                       # What read queue length does an incoming req see
system.mem_ctrls.rdQLenPdf::7                       0                       # What read queue length does an incoming req see
system.mem_ctrls.rdQLenPdf::8                       0                       # What read queue length does an incoming req see
system.mem_ctrls.rdQLenPdf::9                       0                       # What read queue length does an incoming req see
system.mem_ctrls.rdQLenPdf::10                      0                       # What read queue length does an incoming req see
system.mem_ctrls.rdQLenPdf::11                      0                       # What read queue length does an incoming req see
system.mem_ctrls.rdQLenPdf::12                      0                       # What read queue length does an incoming req see
system.mem_ctrls.rdQLenPdf::13                      0                       # What read queue length does an incoming req see
system.mem_ctrls.rdQLenPdf::14                      0                       # What read queue length does an incoming req see
system.mem_ctrls.rdQLenPdf::15                      0                       # What read queue length does an incoming req see
system.mem_ctrls.rdQLenPdf::16                      0                       # What read queue length does an incoming req see
system.mem_ctrls.rdQLenPdf::17                      0                       # What read queue length does an incoming req see
system.mem_ctrls.rdQLenPdf::18                      0                       # What read queue length does an incoming req see
system.mem_ctrls.rdQLenPdf::19                      0                       # What read queue length does an incoming req see
system.mem_ctrls.rdQLenPdf::20                      0                       # What read queue length does an incoming req see
system.mem_ctrls.rdQLenPdf::21                      0                       # What read queue length does an incoming req see
system.mem_ctrls.rdQLenPdf::22                      0                       # What read queue length does an incoming req see
system.mem_ctrls.rdQLenPdf::23                      0                       # What read queue length does an incoming req see
system.mem_ctrls.rdQLenPdf::24                      0                       # What read queue length does an incoming req see
system.mem_ctrls.rdQLenPdf::25                      0                       # What read queue length does an incoming req see
system.mem_ctrls.rdQLenPdf::26                      0                       # What read queue length does an incoming req see
system.mem_ctrls.rdQLenPdf::27                      0                       # What read queue length does an incoming req see
system.mem_ctrls.rdQLenPdf::28                      0                       # What read queue length does an incoming req see
system.mem_ctrls.rdQLenPdf::29                      0                       # What read queue length does an incoming req see
system.mem_ctrls.rdQLenPdf::30                      0                       # What read queue length does an incoming req see
system.mem_ctrls.rdQLenPdf::31                      0                       # What read queue length does an incoming req see
system.mem_ctrls.wrQLenPdf::0                       0                       # What write queue length does an incoming req see
system.mem_ctrls.wrQLenPdf::1                       0                       # What write queue length does an incoming req see
system.mem_ctrls.wrQLenPdf::2                       0                       # What write queue length does an incoming req see
system.mem_ctrls.wrQLenPdf::3                       0                       # What write queue length does an incoming req see
system.mem_ctrls.wrQLenPdf::4                       0                       # What write queue length does an incoming req see
system.mem_ctrls.wrQLenPdf::5                       0                       # What write queue length does an incoming req see
system.mem_ctrls.wrQLenPdf::6                       0                       # What write queue length does an incoming req see
system.mem_ctrls.wrQLenPdf::7                       0                       # What write queue length does an incoming req see
system.mem_ctrls.wrQLenPdf::8                       0                       # What write queue length does an incoming req see
system.mem_ctrls.wrQLenPdf::9                       0                       # What write queue length does an incoming req see
system.mem_ctrls.wrQLenPdf::10                      0                       # What write queue length does an incoming req see
system.mem_ctrls.wrQLenPdf::11                      0                       # What write queue length does an incoming req see
system.mem_ctrls.wrQLenPdf::12                      0                       # What write queue length does an incoming req see
system.mem_ctrls.wrQLenPdf::13                      0                       # What write queue length does an incoming req see
system.mem_ctrls.wrQLenPdf::14                      0                       # What write queue length does an incoming req see
system.mem_ctrls.wrQLenPdf::15                      0                       # What write queue length does an incoming req see
system.mem_ctrls.wrQLenPdf::16                      0                       # What write queue length does an incoming req see
system.mem_ctrls.wrQLenPdf::17                      0                       # What write queue length does an incoming req see
system.mem_ctrls.wrQLenPdf::18                      0                       # What write queue length does an incoming req see
system.mem_ctrls.wrQLenPdf::19                      0                       # What write queue length does an incoming req see
system.mem_ctrls.wrQLenPdf::20                      0                       # What write queue length does an incoming req see
system.mem_ctrls.wrQLenPdf::21                      0                       # What write queue length does an incoming req see
system.mem_ctrls.wrQLenPdf::22                      0                       # What write queue length does an incoming req see
system.mem_ctrls.wrQLenPdf::23                      0                       # What write queue length does an incoming req see
system.mem_ctrls.wrQLenPdf::24                      0                       # What write queue length does an incoming req see
system.mem_ctrls.wrQLenPdf::25                      0                       # What write queue length does an incoming req see
system.mem_ctrls.wrQLenPdf::26                      0                       # What write queue length does an incoming req see
system.mem_ctrls.wrQLenPdf::27                      0                       # What write queue length does an incoming req see
system.mem_ctrls.wrQLenPdf::28                      0                       # What write queue length does an incoming req see
system.mem_ctrls.wrQLenPdf::29                      0                       # What write queue length does an incoming req see
system.mem_ctrls.wrQLenPdf::30                      0                       # What write queue length does an incoming req see
system.mem_ctrls.wrQLenPdf::31                      0                       # What write queue length does an incoming req see
system.mem_ctrls.wrQLenPdf::32                      0                       # What write queue length does an incoming req see
system.mem_ctrls.wrQLenPdf::33                      0                       # What write queue length does an incoming req see
system.mem_ctrls.wrQLenPdf::34                      0                       # What write queue length does an incoming req see
system.mem_ctrls.wrQLenPdf::35                      0                       # What write queue length does an incoming req see
system.mem_ctrls.wrQLenPdf::36                      0                       # What write queue length does an incoming req see
system.mem_ctrls.wrQLenPdf::37                      0                       # What write queue length does an incoming req see
system.mem_ctrls.wrQLenPdf::38                      0                       # What write queue length does an incoming req see
system.mem_ctrls.wrQLenPdf::39                      0                       # What write queue length does an incoming req see
system.mem_ctrls.wrQLenPdf::40                      0                       # What write queue length does an incoming req see
system.mem_ctrls.wrQLenPdf::41                      0                       # What write queue length does an incoming req see
system.mem_ctrls.wrQLenPdf::42                      0                       # What write queue length does an incoming req see
system.mem_ctrls.wrQLenPdf::43                      0                       # What write queue length does an incoming req see
system.mem_ctrls.wrQLenPdf::44                      0                       # What write queue length does an incoming req see
system.mem_ctrls.wrQLenPdf::45                      0                       # What write queue length does an incoming req see
system.mem_ctrls.wrQLenPdf::46                      0                       # What write queue length does an incoming req see
system.mem_ctrls.wrQLenPdf::47                      0                       # What write queue length does an incoming req see
system.mem_ctrls.wrQLenPdf::48                      0                       # What write queue length does an incoming req see
system.mem_ctrls.wrQLenPdf::49                      0                       # What write queue length does an incoming req see
system.mem_ctrls.wrQLenPdf::50                      0                       # What write queue length does an incoming req see
system.mem_ctrls.wrQLenPdf::51                      0                       # What write queue length does an incoming req see
system.mem_ctrls.wrQLenPdf::52                      0                       # What write queue length does an incoming req see
system.mem_ctrls.wrQLenPdf::53                      0                       # What write queue length does an incoming req see
system.mem_ctrls.wrQLenPdf::54                      0                       # What write queue length does an incoming req see
system.mem_ctrls.wrQLenPdf::55                      0                       # What write queue length does an incoming req see
system.mem_ctrls.wrQLenPdf::56                      0                       # What write queue length does an incoming req see
system.mem_ctrls.wrQLenPdf::57                      0                       # What write queue length does an incoming req see
system.mem_ctrls.wrQLenPdf::58                      0                       # What write queue length does an incoming req see
system.mem_ctrls.wrQLenPdf::59                      0                       # What write queue length does an incoming req see
system.mem_ctrls.wrQLenPdf::60                      0                       # What write queue length does an incoming req see
system.mem_ctrls.wrQLenPdf::61                      0                       # What write queue length does an incoming req see
system.mem_ctrls.wrQLenPdf::62                      0                       # What write queue length does an incoming req see
system.mem_ctrls.wrQLenPdf::63                      0                       # What write queue length does an incoming req see
system.mem_ctrls.bytesReadWrQ                       0                       # Total number of bytes read from write queue
system.mem_ctrls.bytesReadSys                  426944                       # Total read bytes from the system interface side
system.mem_ctrls.bytesWrittenSys                    0                       # Total written bytes from the system interface side
system.mem_ctrls.avgRdBWSys                      2.21                       # Average system read bandwidth in MiByte/s
system.mem_ctrls.avgWrBWSys                      0.00                       # Average system write bandwidth in MiByte/s
system.mem_ctrls.totGap                  193228057500                       # Total gap between requests
system.mem_ctrls.avgGap                   28965381.13                       # Average gap between requests
system.mem_ctrls.requestorReadBytes::.cpu.inst        58560                       # Per-requestor bytes read from memory
system.mem_ctrls.requestorReadBytes::.cpu.data       368384                       # Per-requestor bytes read from memory
system.mem_ctrls.requestorReadRate::.cpu.inst 303061.461834815680                       # Per-requestor bytes read from memory rate (Bytes/sec)
system.mem_ctrls.requestorReadRate::.cpu.data 1906471.884504042799                       # Per-requestor bytes read from memory rate (Bytes/sec)
system.mem_ctrls.requestorReadAccesses::.cpu.inst          915                       # Per-requestor read serviced memory accesses
system.mem_ctrls.requestorReadAccesses::.cpu.data         5756                       # Per-requestor read serviced memory accesses
system.mem_ctrls.requestorReadTotalLat::.cpu.inst     22861500                       # Per-requestor read total memory access latency
system.mem_ctrls.requestorReadTotalLat::.cpu.data    146831500                       # Per-requestor read total memory access latency
system.mem_ctrls.requestorReadAvgLat::.cpu.inst     24985.25                       # Per-requestor read average memory access latency
system.mem_ctrls.requestorReadAvgLat::.cpu.data     25509.29                       # Per-requestor read average memory access latency
system.mem_ctrls.dram.bytes_read::.cpu.inst        58560                       # Number of bytes read from this memory
system.mem_ctrls.dram.bytes_read::.cpu.data       368384                       # Number of bytes read from this memory
system.mem_ctrls.dram.bytes_read::total        426944                       # Number of bytes read from this memory
system.mem_ctrls.dram.bytes_inst_read::.cpu.inst        58560                       # Number of instructions bytes read from this memory
system.mem_ctrls.dram.bytes_inst_read::total        58560                       # Number of instructions bytes read from this memory
system.mem_ctrls.dram.num_reads::.cpu.inst          915                       # Number of read requests responded to by this memory
system.mem_ctrls.dram.num_reads::.cpu.data         5756                       # Number of read requests responded to by this memory
system.mem_ctrls.dram.num_reads::total           6671                       # Number of read requests responded to by this memory
system.mem_ctrls.dram.bw_read::.cpu.inst       303061                       # Total read bandwidth from this memory (bytes/s)
system.mem_ctrls.dram.bw_read::.cpu.data      1906472                       # Total read bandwidth from this memory (bytes/s)
system.mem_ctrls.dram.bw_read::total          2209533                       # Total read bandwidth from this memory (bytes/s)
system.mem_ctrls.dram.bw_inst_read::.cpu.inst       303061                       # Instruction read bandwidth from this memory (bytes/s)
system.mem_ctrls.dram.bw_inst_read::total       303061                       # Instruction read bandwidth from this memory (bytes/s)
system.mem_ctrls.dram.bw_total::.cpu.inst       303061                       # Total bandwidth to/from this memory (bytes/s)
system.mem_ctrls.dram.bw_total::.cpu.data      1906472                       # Total bandwidth to/from this memory (bytes/s)
system.mem_ctrls.dram.bw_total::total         2209533                       # Total bandwidth to/from this memory (bytes/s)
system.mem_ctrls.dram.readBursts                 6671                       # Number of DRAM read bursts
system.mem_ctrls.dram.writeBursts                   0                       # Number of DRAM write bursts
system.mem_ctrls.dram.perBankRdBursts::0          495                       # Per bank write bursts
system.mem_ctrls.dram.perBankRdBursts::1          512                       # Per bank write bursts
system.mem_ctrls.dram.perBankRdBursts::2          529                       # Per bank write bursts
system.mem_ctrls.dram.perBankRdBursts::3          455                       # Per bank write bursts
system.mem_ctrls.dram.perBankRdBursts::4          507                       # Per bank write bursts
system.mem_ctrls.dram.perBankRdBursts::5          425                       # Per bank write bursts
system.mem_ctrls.dram.perBankRdBursts::6          450                       # Per bank write bursts
system.mem_ctrls.dram.perBankRdBursts::7          377                       # Per bank write bursts
system.mem_ctrls.dram.perBankRdBursts::8          466                       # Per bank write bursts
system.mem_ctrls.dram.perBankRdBursts::9          448                       # Per bank write bursts
system.mem_ctrls.dram.perBankRdBursts::10          400                       # Per bank write bursts
system.mem_ctrls.dram.perBankRdBursts::11          358                       # Per bank write bursts
system.mem_ctrls.dram.perBankRdBursts::12          256                       # Per bank write bursts
system.mem_ctrls.dram.perBankRdBursts::13          280                       # Per bank write bursts
system.mem_ctrls.dram.perBankRdBursts::14          404                       # Per bank write bursts
system.mem_ctrls.dram.perBankRdBursts::15          309                       # Per bank write bursts
system.mem_ctrls.dram.perBankWrBursts::0            0                       # Per bank write bursts
system.mem_ctrls.dram.perBankWrBursts::1            0                       # Per bank write bursts
system.mem_ctrls.dram.perBankWrBursts::2            0                       # Per bank write bursts
system.mem_ctrls.dram.perBankWrBursts::3            0                       # Per bank write bursts
system.mem_ctrls.dram.perBankWrBursts::4            0                       # Per bank write bursts
system.mem_ctrls.dram.perBankWrBursts::5            0                       # Per bank write bursts
system.mem_ctrls.dram.perBankWrBursts::6            0                       # Per bank write bursts
system.mem_ctrls.dram.perBankWrBursts::7            0                       # Per bank write bursts
system.mem_ctrls.dram.perBankWrBursts::8            0                       # Per bank write bursts
system.mem_ctrls.dram.perBankWrBursts::9            0                       # Per bank write bursts
system.mem_ctrls.dram.perBankWrBursts::10            0                       # Per bank write bursts
system.mem_ctrls.dram.perBankWrBursts::11            0                       # Per bank write bursts
system.mem_ctrls.dram.perBankWrBursts::12            0                       # Per bank write bursts
system.mem_ctrls.dram.perBankWrBursts::13            0                       # Per bank write bursts
system.mem_ctrls.dram.perBankWrBursts::14            0                       # Per bank write bursts
system.mem_ctrls.dram.perBankWrBursts::15            0                       # Per bank write bursts
system.mem_ctrls.dram.totQLat                44611750                       # Total ticks spent queuing
system.mem_ctrls.dram.totBusLat              33355000                       # Total ticks spent in databus transfers
system.mem_ctrls.dram.totMemAccLat          169693000                       # Total ticks spent from burst creation until serviced by the DRAM
system.mem_ctrls.dram.avgQLat                 6687.42                       # Average queueing delay per DRAM burst
system.mem_ctrls.dram.avgBusLat               5000.00                       # Average bus latency per DRAM burst
system.mem_ctrls.dram.avgMemAccLat           25437.42                       # Average memory access latency per DRAM burst
system.mem_ctrls.dram.readRowHits                5684                       # Number of row buffer hits during reads
system.mem_ctrls.dram.writeRowHits                  0                       # Number of row buffer hits during writes
system.mem_ctrls.dram.readRowHitRate            85.20                       # Row buffer hit rate for reads
system.mem_ctrls.dram.writeRowHitRate             nan                       # Row buffer hit rate for writes
system.mem_ctrls.dram.bytesPerActivate::samples          980                       # Bytes accessed per row activation
system.mem_ctrls.dram.bytesPerActivate::mean   434.612245                       # Bytes accessed per row activation
system.mem_ctrls.dram.bytesPerActivate::gmean   262.618120                       # Bytes accessed per row activation
system.mem_ctrls.dram.bytesPerActivate::stdev   381.508388                       # Bytes accessed per row activation
system.mem_ctrls.dram.bytesPerActivate::0-127          246     25.10%     25.10% # Bytes accessed per row activation
system.mem_ctrls.dram.bytesPerActivate::128-255          218     22.24%     47.35% # Bytes accessed per row activation
system.mem_ctrls.dram.bytesPerActivate::256-383           93      9.49%     56.84% # Bytes accessed per row activation
system.mem_ctrls.dram.bytesPerActivate::384-511           56      5.71%     62.55% # Bytes accessed per row activation
system.mem_ctrls.dram.bytesPerActivate::512-639           47      4.80%     67.35% # Bytes accessed per row activation
system.mem_ctrls.dram.bytesPerActivate::640-767           27      2.76%     70.10% # Bytes accessed per row activation
system.mem_ctrls.dram.bytesPerActivate::768-895           41      4.18%     74.29% # Bytes accessed per row activation
system.mem_ctrls.dram.bytesPerActivate::896-1023           74      7.55%     81.84% # Bytes accessed per row activation
system.mem_ctrls.dram.bytesPerActivate::1024-1151          178     18.16%    100.00% # Bytes accessed per row activation
system.mem_ctrls.dram.bytesPerActivate::total          980                       # Bytes accessed per row activation
system.mem_ctrls.dram.bytesRead                426944                       # Total number of bytes read from DRAM
system.mem_ctrls.dram.bytesWritten                  0                       # Total number of bytes written to DRAM
system.mem_ctrls.dram.avgRdBW                2.209533                       # Average DRAM read bandwidth in MiBytes/s
system.mem_ctrls.dram.avgWrBW                       0                       # Average DRAM write bandwidth in MiBytes/s
system.mem_ctrls.dram.peakBW                 12800.00                       # Theoretical peak bandwidth in MiByte/s
system.mem_ctrls.dram.busUtil                    0.02                       # Data bus utilization in percentage
system.mem_ctrls.dram.busUtilRead                0.02                       # Data bus utilization in percentage for reads
system.mem_ctrls.dram.busUtilWrite               0.00                       # Data bus utilization in percentage for writes
system.mem_ctrls.dram.pageHitRate               85.20                       # Row buffer hit rate, read and write combined
system.mem_ctrls.dram.power_state.pwrStateResidencyTicks::UNDEFINED 193228131500                       # Cumulative time (in ticks) in various power states
system.mem_ctrls.dram.rank0.actEnergy         3605700                       # Energy for activate commands per rank (pJ)
system.mem_ctrls.dram.rank0.preEnergy         1908885                       # Energy for precharge commands per rank (pJ)
system.mem_ctrls.dram.rank0.readEnergy       26775000                       # Energy for read commands per rank (pJ)
system.mem_ctrls.dram.rank0.writeEnergy             0                       # Energy for write commands per rank (pJ)
system.mem_ctrls.dram.rank0.refreshEnergy 15252906240.000002                       # Energy for refresh commands per rank (pJ)
system.mem_ctrls.dram.rank0.actBackEnergy   3403427250                       # Energy for active background per rank (pJ)
system.mem_ctrls.dram.rank0.preBackEnergy  71333558880                       # Energy for precharge background per rank (pJ)
system.mem_ctrls.dram.rank0.actPowerDownEnergy            0                       # Energy for active power-down per rank (pJ)
system.mem_ctrls.dram.rank0.prePowerDownEnergy            0                       # Energy for precharge power-down per rank (pJ)
system.mem_ctrls.dram.rank0.selfRefreshEnergy            0                       # Energy for self refresh per rank (pJ)
system.mem_ctrls.dram.rank0.totalEnergy   90022181955                       # Total energy per rank (pJ)
system.mem_ctrls.dram.rank0.averagePower   465.885486                       # Core power per rank (mW)
system.mem_ctrls.dram.rank0.totalIdleTime            0                       # Total Idle time Per DRAM Rank
system.mem_ctrls.dram.rank0.pwrStateTime::IDLE 185419826500                       # Time in different power states
system.mem_ctrls.dram.rank0.pwrStateTime::REF   6452160000                       # Time in different power states
system.mem_ctrls.dram.rank0.pwrStateTime::SREF            0                       # Time in different power states
system.mem_ctrls.dram.rank0.pwrStateTime::PRE_PDN            0                       # Time in different power states
system.mem_ctrls.dram.rank0.pwrStateTime::ACT   1356145000                       # Time in different power states
system.mem_ctrls.dram.rank0.pwrStateTime::ACT_PDN            0                       # Time in different power states
system.mem_ctrls.dram.rank1.actEnergy         3441480                       # Energy for activate commands per rank (pJ)
system.mem_ctrls.dram.rank1.preEnergy         1810215                       # Energy for precharge commands per rank (pJ)
system.mem_ctrls.dram.rank1.readEnergy       20855940                       # Energy for read commands per rank (pJ)
system.mem_ctrls.dram.rank1.writeEnergy             0                       # Energy for write commands per rank (pJ)
system.mem_ctrls.dram.rank1.refreshEnergy 15252906240.000002                       # Energy for refresh commands per rank (pJ)
system.mem_ctrls.dram.rank1.actBackEnergy   3255252900                       # Energy for active background per rank (pJ)
system.mem_ctrls.dram.rank1.preBackEnergy  71458337280                       # Energy for precharge background per rank (pJ)
system.mem_ctrls.dram.rank1.actPowerDownEnergy            0                       # Energy for active power-down per rank (pJ)
system.mem_ctrls.dram.rank1.prePowerDownEnergy            0                       # Energy for precharge power-down per rank (pJ)
system.mem_ctrls.dram.rank1.selfRefreshEnergy            0                       # Energy for self refresh per rank (pJ)
system.mem_ctrls.dram.rank1.totalEnergy   89992604055                       # Total energy per rank (pJ)
system.mem_ctrls.dram.rank1.averagePower   465.732414                       # Core power per rank (mW)
system.mem_ctrls.dram.rank1.totalIdleTime            0                       # Total Idle time Per DRAM Rank
system.mem_ctrls.dram.rank1.pwrStateTime::IDLE 185745796750                       # Time in different power states
system.mem_ctrls.dram.rank1.pwrStateTime::REF   6452160000                       # Time in different power states
system.mem_ctrls.dram.rank1.pwrStateTime::SREF            0                       # Time in different power states
system.mem_ctrls.dram.rank1.pwrStateTime::PRE_PDN            0                       # Time in different power states
system.mem_ctrls.dram.rank1.pwrStateTime::ACT   1030174750                       # Time in different power states
system.mem_ctrls.dram.rank1.pwrStateTime::ACT_PDN            0                       # Time in different power states
system.mem_ctrls.power_state.pwrStateResidencyTicks::UNDEFINED 193228131500                       # Cumulative time (in ticks) in various power states
system.membus.trans_dist::ReadResp               2901                       # Transaction distribution
system.membus.trans_dist::ReadExReq              3770                       # Transaction distribution
system.membus.trans_dist::ReadExResp             3770                       # Transaction distribution
system.membus.trans_dist::ReadSharedReq          2901                       # Transaction distribution
system.membus.pkt_count_system.l2.mem_side_port::system.mem_ctrls.port        13342                       # Packet count per connected requestor and responder (bytes)
system.membus.pkt_count_system.l2.mem_side_port::total        13342                       # Packet count per connected requestor and responder (bytes)
system.membus.pkt_count::total                  13342                       # Packet count per connected requestor and responder (bytes)
system.membus.pkt_size_system.l2.mem_side_port::system.mem_ctrls.port       426944                       # Cumulative packet size per connected requestor and responder (bytes)
system.membus.pkt_size_system.l2.mem_side_port::total       426944                       # Cumulative packet size per connected requestor and responder (bytes)
system.membus.pkt_size::total                  426944                       # Cumulative packet size per connected requestor and responder (bytes)
system.membus.snoops                                0                       # Total snoops (count)
system.membus.snoopTraffic                          0                       # Total snoop traffic (bytes)
system.membus.snoop_fanout::samples              6671                       # Request fanout histogram
system.membus.snoop_fanout::mean                    0                       # Request fanout histogram
system.membus.snoop_fanout::stdev                   0                       # Request fanout histogram
system.membus.snoop_fanout::underflows              0      0.00%      0.00% # Request fanout histogram
system.membus.snoop_fanout::0                    6671    100.00%    100.00% # Request fanout histogram
system.membus.snoop_fanout::1                       0      0.00%    100.00% # Request fanout histogram
system.membus.snoop_fanout::overflows               0      0.00%    100.00% # Request fanout histogram
system.membus.snoop_fanout::min_value               0                       # Request fanout histogram
system.membus.snoop_fanout::max_value               0                       # Request fanout histogram
system.membus.snoop_fanout::total                6671                       # Request fanout histogram
system.membus.power_state.pwrStateResidencyTicks::UNDEFINED 193228131500                       # Cumulative time (in ticks) in various power states
system.membus.reqLayer2.occupancy             6672000                       # Layer occupancy (ticks)
system.membus.reqLayer2.utilization               0.0                       # Layer utilization (%)
system.membus.respLayer1.occupancy           35286000                       # Layer occupancy (ticks)
system.membus.respLayer1.utilization              0.0                       # Layer utilization (%)
system.tol2bus.trans_dist::ReadResp              2934                       # Transaction distribution
system.tol2bus.trans_dist::WritebackDirty          535                       # Transaction distribution
system.tol2bus.trans_dist::WritebackClean            3                       # Transaction distribution
system.tol2bus.trans_dist::CleanEvict            1275                       # Transaction distribution
system.tol2bus.trans_dist::ReadExReq             3773                       # Transaction distribution
system.tol2bus.trans_dist::ReadExResp            3773                       # Transaction distribution
system.tol2bus.trans_dist::ReadCleanReq           915                       # Transaction distribution
system.tol2bus.trans_dist::ReadSharedReq         2019                       # Transaction distribution
system.tol2bus.pkt_count_system.cpu.icache.mem_side_port::system.l2.cpu_side_port         1833                       # Packet count per connected requestor and responder (bytes)
system.tol2bus.pkt_count_system.cpu.dcache.mem_side_port::system.l2.cpu_side_port        13394                       # Packet count per connected requestor and responder (bytes)
system.tol2bus.pkt_count::total                 15227                       # Packet count per connected requestor and responder (bytes)
system.tol2bus.pkt_size_system.cpu.icache.mem_side_port::system.l2.cpu_side_port        58752                       # Cumulative packet size per connected requestor and responder (bytes)
system.tol2bus.pkt_size_system.cpu.dcache.mem_side_port::system.l2.cpu_side_port       404928                       # Cumulative packet size per connected requestor and responder (bytes)
system.tol2bus.pkt_size::total                 463680                       # Cumulative packet size per connected requestor and responder (bytes)
system.tol2bus.snoops                               0                       # Total snoops (count)
system.tol2bus.snoopTraffic                         0                       # Total snoop traffic (bytes)
system.tol2bus.snoop_fanout::samples             6707                       # Request fanout histogram
system.tol2bus.snoop_fanout::mean                   0                       # Request fanout histogram
system.tol2bus.snoop_fanout::stdev                  0                       # Request fanout histogram
system.tol2bus.snoop_fanout::underflows             0      0.00%      0.00% # Request fanout histogram
system.tol2bus.snoop_fanout::0                   6707    100.00%    100.00% # Request fanout histogram
system.tol2bus.snoop_fanout::1                      0      0.00%    100.00% # Request fanout histogram
system.tol2bus.snoop_fanout::2                      0      0.00%    100.00% # Request fanout histogram
system.tol2bus.snoop_fanout::3                      0      0.00%    100.00% # Request fanout histogram
system.tol2bus.snoop_fanout::4                      0      0.00%    100.00% # Request fanout histogram
system.tol2bus.snoop_fanout::overflows              0      0.00%    100.00% # Request fanout histogram
system.tol2bus.snoop_fanout::min_value              0                       # Request fanout histogram
system.tol2bus.snoop_fanout::max_value              0                       # Request fanout histogram
system.tol2bus.snoop_fanout::total               6707                       # Request fanout histogram
system.tol2bus.power_state.pwrStateResidencyTicks::UNDEFINED 193228131500                       # Cumulative time (in ticks) in various power states
system.tol2bus.reqLayer0.occupancy            4798000                       # Layer occupancy (ticks)
system.tol2bus.reqLayer0.utilization              0.0                       # Layer utilization (%)
system.tol2bus.respLayer0.occupancy           1372500                       # Layer occupancy (ticks)
system.tol2bus.respLayer0.utilization             0.0                       # Layer utilization (%)
system.tol2bus.respLayer1.occupancy           8688000                       # Layer occupancy (ticks)
system.tol2bus.respLayer1.utilization             0.0                       # Layer utilization (%)
system.voltage_domain.voltage                       1                       # Voltage in Volts

---------- End Simulation Statistics   ----------
